36

O      7.83087   22.66759    6.91703
Fe     5.97804   21.70572    4.93479
N      5.20471   20.00227    5.70986
C      5.41761   19.00211    4.63390
C      4.43266   19.20283    3.48722
C      3.56207   21.72019    2.89305
C      4.29078   23.04649    3.10943
N      4.76329   23.27039    4.48836
C      5.55711   20.63044    1.61047
C      6.95578   20.62937    2.16557
O      7.11398   21.56419    3.26857
H      4.61080   18.33678    2.83024
H      3.03721   21.93862    1.94756
H      3.42720   19.02177    3.90036
H      5.39568   21.54370    1.01609
H      5.57746   19.81542    0.86657
H      7.66697   20.93612    1.38138
H      7.25818   19.63023    2.52154
H      5.15941   23.14660    2.44291
H      3.59314   23.86061    2.84671
H      6.45914   19.14848    4.29394
C      4.34213   20.40740    2.52384
H      3.60827   19.97896    1.82223
H      5.72268   19.73770    6.55463
H      4.21579   20.01980    5.98035
H      8.05171   21.78822    3.38334
H      5.26177   24.16284    4.56864
H      3.96900   23.34064    5.13352
C      2.47160   21.50582    3.92737
H      1.81875   22.39028    4.00203
H      1.82688   20.65615    3.65915
H      2.86848   21.30296    4.93599
C      5.31351   17.59562    5.19934
H      5.55165   16.85413    4.42245
H      6.01831   17.44592    6.03247
H      4.29084   17.39713    5.55876
