22

O      0.54892   -0.27729   -2.54307
O     -0.66709   -2.13712   -0.38183
O     -0.33851    1.89272    0.26004
P      2.06745   -0.54241    0.33099
O     -2.35339    0.11938   -0.75358
O     -0.76755   -0.13725    1.74867
H     -0.72924   -2.43266    0.54358
H     -0.81639    1.95584    1.17332
H      0.06241    2.72642   -0.01967
H      2.99036    0.33899   -0.28466
H      2.50405   -1.80687   -0.13365
H     -2.71514    0.87660   -1.24004
H     -2.86977   -0.64808   -1.04523
H      0.06134   -0.08743    2.25404
Fe    -0.29609   -0.04204   -0.31561
H      2.56231   -0.55996    1.66334
N      0.19404   -3.08776   -1.01502
H     -0.43151   -3.85283   -1.30283
H      0.44633   -2.60182   -1.88377
N     -1.42320    1.10119    2.01296
H     -2.39675    0.90660    1.75224
H     -1.43649    1.24044    3.03273
