29

O     11.84805    7.17369   13.23016
Fe    13.44411    7.53407   11.59514
N     14.91252    7.79766    9.87018
N     12.30563    8.31594   10.06951
O     14.99573    8.62638   12.44378
N     14.01156    5.60387   11.16496
C     14.39587    8.91594    9.05124
H     14.74432    8.81401    8.00554
C     12.89868    8.86751    9.07875
C     16.20712    8.02485   10.49863
H     16.67253    7.04816   10.72670
H     16.93046    8.54572    9.84868
C     16.08019    8.68990   11.84729
C     14.87667    6.53141    9.13570
H     14.08683    6.56456    8.36191
H     15.81266    6.33557    8.57932
C     14.53376    5.38277   10.01789
H     12.34318    9.37770    8.27373
H     14.70803    4.36086    9.63844
H     13.75287    4.77864   11.71557
H     11.28188    8.36955   10.07835
C     14.79017   10.30484    9.54100
H     14.45814   10.47978   10.57396
H     15.87359   10.46538    9.45609
H     14.31235   11.06459    8.90349
C     17.25339    9.35512   12.43360
H     17.13414    9.49690   13.51631
H     18.18516    8.81751   12.19278
H     17.34468   10.35073   11.95684
