53

O      5.81309   23.25515    7.56191
Fe     6.46052   22.32739    5.15829
P      6.12306   20.17521    5.68626
C      5.88756   18.89174    4.41115
C      4.82041   19.06760    3.33420
C      4.31344   21.53909    3.29295
C      4.54716   22.94031    2.73059
P      5.17922   23.88395    4.15297
C      6.00854   20.53301    1.58647
C      7.39172   20.61593    2.20359
P      7.76521   21.96537    3.36720
C      9.37215   21.48451    4.06590
C      8.19800   23.37099    2.30388
H      4.91622   18.20349    2.65717
H      5.07493   21.50799    4.19618
H      3.83896   18.93371    3.81500
H      5.84468   21.39906    0.92600
H      6.03385   19.67333    0.89640
H      8.14119   20.72755    1.40067
H      7.65839   19.68828    2.72396
H      9.03041   23.07983    1.64344
H      7.34690   23.67607    1.68064
H      8.51706   24.22005    2.92585
H     10.10292   21.30758    3.25987
H      9.75013   22.28883    4.71645
H      9.25509   20.56858    4.66183
H      5.33828   22.92904    1.97056
H      3.64716   23.37502    2.26570
C      3.77074   24.18636    5.23856
H      4.13452   24.74548    6.11330
H      2.99825   24.77022    4.71267
H      3.35855   23.23107    5.58902
C      5.71770   25.52129    3.62580
H      6.12197   26.05427    4.50101
H      6.48780   25.46768    2.84752
H      4.84616   26.07792    3.24358
H      5.62735   17.99305    4.99951
H      6.87946   18.67307    3.99220
C      4.45663   20.23438    6.58528
H      3.76335   20.70460    5.86634
H      4.17613   19.16931    6.67657
C      7.24189   19.42342    6.88968
H      6.85469   18.43525    7.18789
H      8.25214   19.30564    6.47251
H      7.29594   20.08061    7.76777
C      4.78313   20.33245    2.47014
H      3.95782   20.16856    1.75270
N      4.44153   20.87869    7.82556
H      4.68258   21.86999    7.78223
H      4.91843   20.39757    8.58221
N      3.01725   21.38250    3.80776
H      2.38013   22.16092    3.68985
H      2.56445   20.48989    3.64659
