14

H 0.000000 0.000000 0.000000
H 0.000000 0.000000 0.890909
H 0.000000 0.000000 1.781818
H 0.000000 0.000000 2.672727
H 0.000000 0.000000 3.563636
H 0.000000 0.000000 4.454545
H 0.000000 0.000000 5.345455
H 0.000000 0.000000 6.236364
H 0.000000 0.000000 7.127273
H 0.000000 0.000000 8.018182
H 0.000000 0.000000 8.909091
H 0.000000 0.000000 9.800000
H 0.000000 0.000000 10.690909
H 0.000000 0.000000 11.581818
