18

O      0.64095   -0.08188   -1.89747
O     -0.22492   -2.08964   -0.38205
O      0.50716    2.06179   -0.33656
N      2.34396   -0.40551   -0.03744
O     -1.87800    0.34074   -0.54394
O     -0.33312    0.05252    1.71435
H     -0.44838   -2.50930    0.46882
H      0.42791    2.51749    0.52133
H      2.93914    0.33036   -0.43174
H      2.66192   -1.27505   -0.47791
H     -2.16696    1.17628   -0.94383
H     -2.43112   -0.34195   -0.95570
H      0.09815   -0.02801    2.57767
H     -1.27174    0.21562    1.89506
Fe     0.31778   -0.04133   -0.59412
H      2.58880   -0.47631    0.95410
Br     1.31668    3.26174   -1.49433
Br     0.17794   -3.46855   -1.55373
