52

O      7.53259   23.21356    6.12132
Fe     6.21670   22.04474    4.84907
N      5.86902   20.31485    5.96973
C      5.61317   19.14076    5.10298
C      4.54242   19.41736    4.06298
P      4.95254   21.03599    3.36545
C      3.55882   22.11793    2.97488
C      4.13550   23.51134    3.13681
N      4.88023   23.67602    4.40901
C      5.98910   20.75308    1.84221
C      7.40376   20.57696    2.38310
N      7.75984   21.55926    3.41728
C      9.00175   21.15767    4.08819
C      7.93536   22.89147    2.82931
H      4.52056   18.65703    3.26575
H      3.18735   21.94499    1.95140
H      2.72607   21.91510    3.66554
H      3.53160   19.45621    4.49711
H      5.91511   21.70361    1.28833
H      8.13335   20.62130    1.55422
H      7.48809   19.57507    2.82989
H      8.73229   22.87831    2.06466
H      7.00127   23.21813    2.35553
H      8.21049   23.59664    3.62429
H      9.84485   21.17230    3.37613
H      9.20046   21.85074    4.91538
H      8.89571   20.13741    4.47636
H      4.84400   23.71969    2.32111
H      3.34479   24.28019    3.07305
C      3.95521   23.67709    5.54899
H      4.52897   23.78192    6.47810
H      3.24958   24.52256    5.47102
H      3.38070   22.74514    5.57700
C      5.59376   24.96322    4.38494
H      6.18524   25.06520    5.30161
H      6.26726   25.00339    3.52214
H      4.86877   25.79119    4.30813
H      5.32519   18.29668    5.75336
H      6.56528   18.87681    4.62342
C      4.65180   20.57224    6.83923
H      3.84784   20.85773    6.14716
H      4.92260   21.45946    7.43104
C      7.00875   20.02007    6.85089
H      6.78523   19.12641    7.45509
H      7.90583   19.83204    6.25302
H      7.19564   20.87825    7.50583
N      5.47938   19.69371    1.05131
H      5.39463   19.90330    0.06133
H      5.95407   18.80452    1.17780
N      4.29995   19.45656    7.61356
H      3.37545   19.07360    7.45570
H      4.50983   19.51086    8.60388
