36

O      7.46031   22.47521    6.52058
Fe     6.34860   21.89810    5.33124
N      5.57527   20.19465    6.10631
C      5.78817   19.19449    5.03035
C      4.80322   19.39521    3.88367
C      3.93263   21.91257    3.28950
C      4.66134   23.23887    3.50588
N      5.13385   23.46277    4.88481
C      5.92767   20.82282    2.00692
C      7.32634   20.82175    2.56202
O      7.48454   21.75657    3.66502
H      4.98136   18.52916    3.22669
H      3.40777   22.13100    2.34401
H      3.79776   19.21415    4.29681
H      5.76624   21.73608    1.41254
H      5.94802   20.00780    1.26302
H      8.03753   21.12850    1.77783
H      7.62874   19.82261    2.91799
H      5.52997   23.33898    2.83936
H      3.96370   24.05299    3.24316
H      6.82970   19.34086    4.69039
C      4.71269   20.59978    2.92029
H      3.97883   20.17134    2.21868
H      6.09324   19.93008    6.95108
H      4.58635   20.21218    6.37680
H      8.42227   21.98060    3.77979
H      5.63233   24.35522    4.96509
H      4.33956   23.53302    5.52997
C      2.84216   21.69820    4.32382
H      2.18931   22.58266    4.39848
H      2.19744   20.84853    4.05560
H      3.23904   21.49534    5.33244
C      5.68407   17.78800    5.59579
H      5.92221   17.04651    4.81890
H      6.38887   17.63830    6.42892
H      4.66140   17.58951    5.95521
