12

H 0.000000 0.000000 0.000000
H 0.000000 0.000000 1.109091
H 0.000000 0.000000 2.218182
H 0.000000 0.000000 3.327273
H 0.000000 0.000000 4.436364
H 0.000000 0.000000 5.545455
H 0.000000 0.000000 6.654545
H 0.000000 0.000000 7.763636
H 0.000000 0.000000 8.872727
H 0.000000 0.000000 9.981818
H 0.000000 0.000000 11.090909
H 0.000000 0.000000 12.200000
