23

O      0.27509    0.01045   -1.98523
O     -0.34171   -2.14590   -0.36927
O      0.07797    2.13762   -0.25050
P      2.32176   -0.04780    0.07172
N     -2.23331    0.34349   -0.79001
O     -0.50235   -0.00774    1.78455
H     -0.29125   -2.72988    0.40104
H     -0.04963   -2.67424   -1.12796
H      0.21245    2.33993    0.69112
H      3.20633    0.03259   -1.03507
H      2.78173   -1.24364    0.67859
H     -2.65417    0.99783   -0.12426
H     -2.41172    0.75207   -1.71278
H     -1.32007   -0.07150    2.31196
Fe    -0.09868   -0.01337   -0.63207
H      2.85832    0.93968    0.92701
H     -2.79911   -0.51025   -0.75277
N      0.63723   -0.17022    2.58810
H      0.63611    0.57358    3.29585
H      0.55295   -1.05986    3.09300
N      1.30087    2.56617   -0.86762
H      1.15845    3.56836   -1.05404
H      1.24400    2.10899   -1.78554
