45

O     -0.36460   -3.25426    0.38381
Fe    -0.19515   -2.06180    2.11763
N      1.91400   -2.19094    2.59132
N      0.31642   -0.17580    1.31035
N     -2.23210   -1.73382    2.72725
O     -0.12978   -1.91727    4.29674
C     -0.01240   -0.09781   -0.12071
C      1.77363   -0.01066    1.50713
C      2.26196   -0.76327    2.72272
C      2.71839   -2.84650    1.55303
C     -0.41821    0.84808    2.08982
C     -1.92561    0.69869    2.13150
C     -2.46592   -0.32457    3.10367
C     -3.11579   -2.15027    1.62772
C      1.10380   -2.26260    4.90614
C      1.90937   -2.95480    3.83600
C     -1.34088   -2.29608    4.95260
C     -2.33810   -2.64175    3.86424
H     -2.93027   -3.20441    1.38909
H     -4.16848   -2.01868    1.92436
H     -2.90598   -1.54801    0.73691
H      0.26328    0.89275   -0.52063
H      0.52681   -0.88533   -0.66047
H     -1.08533   -0.25800   -0.27312
H      2.02295    1.05914    1.60720
H      2.28068   -0.36414    0.60104
H      2.56432   -2.34860    0.59051
H      3.78764   -2.81478    1.82151
H      2.39479   -3.88812    1.45007
H      1.78120   -0.35739    3.62112
H      3.35129   -0.62971    2.84246
H      2.92222   -3.22859    4.17977
H     -1.18041   -3.18626    5.57910
H     -1.68956   -1.47038    5.59312
H     -2.14942   -3.65790    3.48296
H     -2.00810   -0.15583    4.08667
H     -3.55268   -0.18985    3.23350
H     -2.31992    1.67113    2.46807
H     -2.34795    0.56941    1.12467
H     -0.01867    0.83519    3.11605
H     -0.16110    1.83209    1.65748
H      1.60357   -1.35496    5.28554
H      0.95766   -2.94228    5.75877
Br     0.97237   -4.63266    3.47141
Br    -4.08897   -2.70281    4.67138
