29

O     -2.55090    2.13996    2.36671
Fe    -2.33116    2.20104   -0.38141
N     -3.58466    3.86635   -0.69260
O     -1.93534    1.69862   -2.01175
N     -0.24172    2.49377   -0.30394
O     -3.59720    0.55253   -0.43364
C     -4.83288    3.64418    0.05533
H     -5.50179    4.51320   -0.06622
H     -5.33796    2.74807   -0.33052
H     -4.60054    3.50561    1.11807
C     -2.83769    5.00909   -0.14568
H     -1.90795    5.15652   -0.71445
H     -3.44088    5.93057   -0.22245
H     -2.60371    4.82000    0.91039
C     -3.87093    4.06007   -2.11909
H     -4.41275    3.18661   -2.51062
H     -4.51192    4.94788   -2.26014
H     -2.93653    4.22041   -2.67494
H     -1.31125    1.00478   -2.27108
H     -2.51814    1.81556   -2.77573
H      0.16415    2.28658    0.61611
H     -3.83482    0.34730    0.48469
C      0.59110    2.98458   -1.13969
H      1.65127    3.15424   -0.88365
H      0.25133    3.24970   -2.15211
C     -3.77537   -0.60837   -1.25784
H     -3.03618   -1.38666   -1.00330
H     -4.79685   -0.99938   -1.12314
H     -3.64665   -0.29493   -2.30081
