45

O     -0.33055   -3.01463    0.73223
Fe    -0.22920   -2.30143    1.76921
N      1.87995   -2.43057    2.24290
N      0.28237   -0.41543    0.96193
N     -2.26615   -1.97345    2.37883
O     -0.16383   -2.15690    3.94832
C     -0.04645   -0.33744   -0.46913
C      1.73958   -0.25029    1.15871
C      2.22791   -1.00290    2.37430
C      2.68434   -3.08613    1.20461
C     -0.45226    0.60845    1.74140
C     -1.95966    0.45906    1.78308
C     -2.49997   -0.56420    2.75525
C     -3.14984   -2.38990    1.27930
C      1.06975   -2.50223    4.55772
C      1.87532   -3.19443    3.48758
C     -1.37493   -2.53571    4.60418
C     -2.37215   -2.88138    3.51582
H     -2.96432   -3.44404    1.04067
H     -4.20253   -2.25831    1.57594
H     -2.94003   -1.78764    0.38849
H      0.22923    0.65312   -0.86905
H      0.49276   -1.12496   -1.00889
H     -1.11938   -0.49763   -0.62154
H      1.98890    0.81951    1.25878
H      2.24663   -0.60377    0.25262
H      2.53027   -2.58823    0.24209
H      3.75359   -3.05441    1.47309
H      2.36074   -4.12775    1.10165
H      1.74715   -0.59702    3.27270
H      3.31724   -0.86934    2.49404
H      2.88817   -3.46822    3.83135
H     -1.21446   -3.42589    5.23068
H     -1.72361   -1.71001    5.24470
H     -2.18347   -3.89753    3.13454
H     -2.04215   -0.39546    3.73825
H     -3.58673   -0.42948    2.88508
H     -2.35397    1.43150    2.11965
H     -2.38200    0.32978    0.77625
H     -0.05272    0.59556    2.76763
H     -0.19515    1.59246    1.30906
H      1.56952   -1.59459    4.93712
H      0.92361   -3.18191    5.41035
Br     0.93832   -4.87229    3.12299
Br    -4.12302   -2.94244    4.32296
