45

O     -0.38973   -3.43113    0.12664
Fe    -0.17002   -1.88493    2.37480
N      1.93913   -2.01407    2.84849
N      0.34155    0.00107    1.56752
N     -2.20697   -1.55695    2.98442
O     -0.10465   -1.74040    4.55391
C      0.01273    0.07906    0.13646
C      1.79876    0.16621    1.76430
C      2.28709   -0.58640    2.97989
C      2.74352   -2.66963    1.81020
C     -0.39308    1.02495    2.34699
C     -1.90048    0.87556    2.38867
C     -2.44079   -0.14770    3.36084
C     -3.09066   -1.97340    1.88489
C      1.12893   -2.08573    5.16331
C      1.93450   -2.77793    4.09317
C     -1.31575   -2.11921    5.20977
C     -2.31297   -2.46488    4.12141
H     -2.90514   -3.02754    1.64626
H     -4.14335   -1.84181    2.18153
H     -2.88085   -1.37114    0.99408
H      0.28841    1.06962   -0.26346
H      0.55194   -0.70846   -0.40330
H     -1.06020   -0.08113   -0.01595
H      2.04808    1.23601    1.86437
H      2.30581   -0.18727    0.85821
H      2.58945   -2.17173    0.84768
H      3.81277   -2.63791    2.07868
H      2.41992   -3.71125    1.70724
H      1.80633   -0.18052    3.87829
H      3.37642   -0.45284    3.09963
H      2.94735   -3.05172    4.43694
H     -1.15528   -3.00939    5.83627
H     -1.66443   -1.29351    5.85029
H     -2.12429   -3.48103    3.74013
H     -1.98297    0.02104    4.34384
H     -3.52755   -0.01298    3.49067
H     -2.29479    1.84800    2.72524
H     -2.32282    0.74628    1.38184
H      0.00646    1.01206    3.37322
H     -0.13597    2.00896    1.91465
H      1.62870   -1.17809    5.54271
H      0.98279   -2.76541    6.01594
Br     0.99750   -4.45579    3.72858
Br    -4.06384   -2.52594    4.92855
