54

O      7.16053   22.76612    6.47733
Fe     6.22472   22.25008    5.14615
P      6.03542   20.22137    6.21729
C      5.30466   18.92484    5.14379
C      4.28498   19.60088    4.24873
P      5.10313   21.09321    3.59652
C      3.85291   22.24210    2.96101
C      4.39163   23.64175    3.17232
N      5.04521   23.89145    4.48073
C      6.20864   20.55647    2.22942
C      7.64279   20.51938    2.72668
P      7.97203   22.09012    3.61215
C      9.58151   21.95237    4.41523
C      8.24444   23.29079    2.28058
H      3.92352   18.95592    3.43097
H      3.65124   22.06251    1.89254
H      2.91997   22.05181    3.50559
H      3.40766   19.94040    4.82354
H      6.09255   21.28793    1.41308
H      5.86965   19.58258    1.84014
H      8.36332   20.36968    1.90532
H      7.79267   19.70231    3.44999
H      9.04988   22.91599    1.62777
H      7.33770   23.44166    1.67929
H      8.55936   24.25277    2.71116
H     10.36032   21.71341    3.67349
H      9.80479   22.91739    4.89518
H      9.55499   21.18425    5.19766
H      5.16164   23.83470    2.41163
H      3.59757   24.39222    3.01365
C      4.08889   24.11919    5.58309
H      4.69887   24.42141    6.44255
H      3.44486   24.98016    5.32701
C      5.87768   25.11382    4.27925
H      6.58663   24.85887    3.48216
H      5.20797   25.89198    3.86730
H      4.86791   18.11938    5.75673
H      6.12130   18.47971    4.55279
C      5.02581   20.23849    7.71586
H      3.97374   20.44146    7.47445
H      5.10405   19.25487    8.20645
H      5.40077   21.01860    8.39143
C      7.65215   19.61949    6.73715
H      7.53055   18.68651    7.31092
H      8.28013   19.42259    5.85817
H      8.12653   20.39135    7.36020
C      6.61859   25.66135    5.46836
H      5.94991   26.05479    6.24676
H      7.28665   24.91212    5.91197
H      7.22767   26.50992    5.12023
C      3.26596   22.91184    5.95864
H      2.87839   23.02642    6.98129
H      2.40442   22.74644    5.29940
H      3.90060   22.00877    5.94028
