22

O      0.39109   -0.05278   -1.86965
O     -0.13176   -2.17943   -0.07121
O      0.10773    2.16127   -0.26153
P      2.42749   -0.31867   -0.09925
O     -1.98430   -0.07606   -0.88211
O     -0.64106    0.01076    1.68341
H     -0.22828   -2.85443   -0.76923
H      0.53141    2.57598    0.50515
H      0.36283    2.70154   -1.02613
H      3.33760    0.72740   -0.39893
H      3.06987   -1.41319   -0.72910
H     -2.56011    0.30935   -1.55724
H     -2.26534    0.25461    0.07294
H     -0.79213   -1.01458    1.66698
Fe     0.05593    0.02037   -0.84474
H      2.73594   -0.56183    1.26465
N     -0.93253   -2.47185    1.03290
H     -1.88513   -2.68965    0.71559
H     -0.54582   -3.29455    1.51254
N     -1.94509    0.54948    1.82075
H     -2.37163    0.13016    2.65796
H     -1.79979    1.53586    2.06131
