18

O      0.70413   -0.08981   -2.15226
O     -0.28810   -2.08171   -0.12726
O      0.44398    2.06972   -0.08177
N      2.28078   -0.39758    0.21735
O     -1.87800    0.34074   -0.54394
O     -0.33312    0.05252    1.71435
H     -0.51156   -2.50137    0.72361
H      0.36473    2.52542    0.77612
H      2.87596    0.33829   -0.17695
H      2.59874   -1.26712   -0.22312
H     -2.16696    1.17628   -0.94383
H     -2.43112   -0.34195   -0.95570
H      0.09815   -0.02801    2.57767
H     -1.27174    0.21562    1.89506
Fe     0.25460   -0.03340   -0.33933
H      2.52562   -0.46838    1.20889
Br     1.25350    3.26967   -1.23954
Br     0.11476   -3.46062   -1.29894
