17

O      0.00000    0.00000    2.30000
Fe     0.00000    0.00000   -0.70000
O     -0.02532   -2.04942   -0.74177
O      0.01885    2.04941   -0.74548
O     -2.09136   -0.00340   -0.89030
O      2.09172    0.00000   -0.88624
O      0.00000    0.00000   -2.75000
H      0.26040   -2.63210   -1.46739
H      0.04961   -2.57039    0.07838
H     -0.25655    2.63228   -1.47486
H     -0.05040    2.57471    0.07232
H     -2.58023    0.46315   -0.18603
H     -2.52460   -0.87680   -0.92807
H      2.52747    0.87055   -0.95080
H      2.57839   -0.44571   -0.16708
H     -0.77522    0.08407   -3.33062
H      0.77001   -0.10212   -3.33458
