23

O      0.20850   -0.45028   -1.75563
O     -0.49793   -2.25939   -0.21013
O      0.18933    2.08207   -0.28257
P      2.30972   -0.55754    0.05634
N     -2.18809    0.22439   -0.90440
O     -0.47882    0.27163    1.69224
H     -0.94112   -2.66928    0.54691
H     -0.37529   -2.94869   -0.87997
H      3.16724    0.33118   -0.64201
H      2.77127   -1.79303   -0.46383
H     -2.37288    0.95881   -1.59297
H     -2.70154   -0.59831   -1.23419
H     -0.05123   -0.17854    2.43422
H     -0.23636    1.24145    1.77340
Fe    -0.08973   -0.22232   -0.65633
H      2.94239   -0.56589    1.32942
H     -2.63877    0.51239   -0.03109
N      0.24389    2.71179    0.98275
H      1.19077    3.09130    1.11489
H     -0.41483    3.50186    0.97497
N      0.49817    2.81617   -1.41346
H     -0.13512    3.62353   -1.46170
H      1.46051    3.16516   -1.32741
