22

O      0.53832   -0.08492   -2.31985
O     -0.13176   -2.17943   -0.07121
O      0.10773    2.16127   -0.26153
P      2.28026   -0.28653    0.35095
O     -2.13153   -0.04392   -0.43191
O     -0.64106    0.01076    1.68341
H     -0.22828   -2.85443   -0.76923
H      0.53141    2.57598    0.50515
H      0.36283    2.70154   -1.02613
H      3.19037    0.75954    0.05127
H      2.92264   -1.38105   -0.27890
H     -2.70734    0.34149   -1.10704
H     -2.41257    0.28675    0.52314
H     -0.79213   -1.01458    1.66698
Fe    -0.09130    0.05251   -0.39454
H      2.58871   -0.52969    1.71485
N     -0.93253   -2.47185    1.03290
H     -1.88513   -2.68965    0.71559
H     -0.54582   -3.29455    1.51254
N     -1.94509    0.54948    1.82075
H     -2.37163    0.13016    2.65796
H     -1.79979    1.53586    2.06131
