24

O     -0.28527    0.77319   -3.29017
N      2.30101    0.21868   -0.47537
H      2.57144    0.22415   -1.46338
H      2.69592   -0.63008   -0.05944
Fe     0.17633    0.21991   -0.37799
H      2.77629    1.00279   -0.02216
P      0.27629    3.03788   -0.55478
H      1.11728    3.57301   -1.56651
H     -0.87528    3.83357   -0.80306
H      0.79082    3.72520    0.58078
P     -0.20068   -2.18094   -1.32815
H     -0.75509   -2.53322   -2.58381
H      0.94590   -3.01171   -1.28481
H     -1.05685   -2.89094   -0.44426
P     -2.09102    0.63889    0.02244
H     -2.70226    1.47572   -0.95706
H     -2.87305   -0.53928   -0.07996
P      0.19799   -0.29401    1.96308
H      0.22910    0.74090    2.93510
H     -0.88624   -1.06635    2.45183
N     -2.40053    1.12585    1.60490
H     -2.06723    2.05857    1.84724
H     -3.35310    0.99473    1.95435
Br     1.91439   -1.51765    2.49702
