45

O     -0.39703   -3.48248    0.05198
Fe    -0.16272   -1.83358    2.44946
N      1.94643   -1.96272    2.92315
N      0.34885    0.05242    1.64218
N     -2.19967   -1.50560    3.05908
O     -0.09735   -1.68905    4.62857
C      0.02003    0.13041    0.21112
C      1.80606    0.21756    1.83896
C      2.29439   -0.53505    3.05455
C      2.75082   -2.61828    1.88486
C     -0.38578    1.07630    2.42165
C     -1.89318    0.92691    2.46333
C     -2.43349   -0.09635    3.43550
C     -3.08336   -1.92205    1.95955
C      1.13623   -2.03438    5.23797
C      1.94180   -2.72658    4.16783
C     -1.30845   -2.06786    5.28443
C     -2.30567   -2.41353    4.19607
H     -2.89784   -2.97619    1.72092
H     -4.13605   -1.79046    2.25619
H     -2.87355   -1.31979    1.06874
H      0.29571    1.12097   -0.18880
H      0.55924   -0.65711   -0.32864
H     -1.05290   -0.02978    0.05871
H      2.05538    1.28736    1.93903
H      2.31311   -0.13592    0.93287
H      2.59675   -2.12038    0.92234
H      3.82007   -2.58656    2.15334
H      2.42722   -3.65990    1.78190
H      1.81363   -0.12917    3.95295
H      3.38372   -0.40149    3.17429
H      2.95465   -3.00037    4.51160
H     -1.14798   -2.95804    5.91093
H     -1.65713   -1.24216    5.92495
H     -2.11699   -3.42968    3.81479
H     -1.97567    0.07239    4.41850
H     -3.52025    0.03837    3.56533
H     -2.28749    1.89935    2.79990
H     -2.31552    0.79763    1.45650
H      0.01376    1.06341    3.44788
H     -0.12867    2.06031    1.98931
H      1.63600   -1.12674    5.61737
H      0.99009   -2.71406    6.09060
Br     1.00480   -4.40444    3.80324
Br    -4.05654   -2.47459    5.00321
