29

O     11.80623    7.16425   13.27300
Fe    13.48593    7.54351   11.55230
N     14.95434    7.80710    9.82734
N     12.34745    8.32538   10.02667
O     15.03755    8.63582   12.40094
N     14.05338    5.61331   11.12212
C     14.43769    8.92538    9.00840
H     14.78614    8.82345    7.96270
C     12.94050    8.87695    9.03591
C     16.24894    8.03429   10.45579
H     16.71435    7.05760   10.68386
H     16.97228    8.55516    9.80584
C     16.12201    8.69934   11.80445
C     14.91849    6.54085    9.09286
H     14.12865    6.57400    8.31907
H     15.85448    6.34501    8.53648
C     14.57558    5.39221    9.97505
H     12.38500    9.38714    8.23089
H     14.74985    4.37030    9.59560
H     13.79469    4.78808   11.67273
H     11.32370    8.37899   10.03551
C     14.83199   10.31428    9.49816
H     14.49996   10.48922   10.53112
H     15.91541   10.47482    9.41325
H     14.35417   11.07403    8.86065
C     17.29521    9.36456   12.39076
H     17.17596    9.50634   13.47347
H     18.22698    8.82695   12.14994
H     17.38650   10.36017   11.91400
