23

O     11.76237    6.98917   13.26655
Fe    13.31742    7.44955   11.58896
N     14.86014    7.77629    9.90019
N     12.23797    8.42487   10.14949
O     14.75137    8.86448   12.36700
N     14.03512    5.58966   11.21661
C     14.34542    8.88956    9.09796
H     14.79318    9.84210    9.43941
H     14.65206    8.81579    8.03916
C     12.87078    9.02718    9.21312
C     16.10343    8.05650   10.58613
H     16.52942    7.10247   10.95422
C     15.85198    8.87406   11.83410
C     14.90686    6.50998    9.17197
H     14.11920    6.49356    8.39931
H     15.86624    6.37379    8.64203
C     14.62605    5.35969   10.09472
H     12.35667    9.68345    8.48938
H     16.69731    9.44554   12.27508
H     13.82019    4.77465   11.79975
H     11.22615    8.58699   10.19080
Br    17.47658    8.85153    9.49212
Br    15.10040    3.69266    9.50791
