36

O      7.75936   22.63046    6.84052
Fe     6.04955   21.74285    5.01130
N      5.27622   20.03940    5.78637
C      5.48912   19.03924    4.71041
C      4.50417   19.23996    3.56373
C      3.63358   21.75732    2.96956
C      4.36229   23.08362    3.18594
N      4.83480   23.30752    4.56487
C      5.62862   20.66757    1.68698
C      7.02729   20.66650    2.24208
O      7.18549   21.60132    3.34508
H      4.68231   18.37391    2.90675
H      3.10872   21.97575    2.02407
H      3.49871   19.05890    3.97687
H      5.46719   21.58083    1.09260
H      5.64897   19.85255    0.94308
H      7.73848   20.97325    1.45789
H      7.32969   19.66736    2.59805
H      5.23092   23.18373    2.51942
H      3.66465   23.89774    2.92322
H      6.53065   19.18561    4.37045
C      4.41364   20.44453    2.60035
H      3.67978   20.01609    1.89874
H      5.79419   19.77483    6.63114
H      4.28730   20.05693    6.05686
H      8.12322   21.82535    3.45985
H      5.33328   24.19997    4.64515
H      4.04051   23.37777    5.21003
C      2.54311   21.54295    4.00388
H      1.89026   22.42741    4.07854
H      1.89839   20.69328    3.73566
H      2.93999   21.34009    5.01250
C      5.38502   17.63275    5.27585
H      5.62316   16.89126    4.49896
H      6.08982   17.48305    6.10898
H      4.36235   17.43426    5.63527
