54

O      7.17160   22.77223    6.49308
Fe     6.21365   22.24397    5.13040
P      6.02435   20.21526    6.20154
C      5.29359   18.91873    5.12804
C      4.27391   19.59477    4.23298
P      5.09206   21.08710    3.58077
C      3.84184   22.23599    2.94526
C      4.38056   23.63564    3.15657
N      5.03414   23.88534    4.46498
C      6.19757   20.55036    2.21367
C      7.63172   20.51327    2.71093
P      7.96096   22.08401    3.59640
C      9.57044   21.94626    4.39948
C      8.23337   23.28468    2.26483
H      3.91245   18.94981    3.41522
H      3.64017   22.05640    1.87679
H      2.90890   22.04570    3.48984
H      3.39659   19.93429    4.80779
H      6.08148   21.28182    1.39733
H      5.85858   19.57647    1.82439
H      8.35225   20.36357    1.88957
H      7.78160   19.69620    3.43424
H      9.03881   22.90988    1.61202
H      7.32663   23.43555    1.66354
H      8.54829   24.24666    2.69541
H     10.34925   21.70730    3.65774
H      9.79372   22.91128    4.87943
H      9.54392   21.17814    5.18191
H      5.15057   23.82859    2.39588
H      3.58650   24.38611    2.99790
C      4.07782   24.11308    5.56734
H      4.68780   24.41530    6.42680
H      3.43379   24.97405    5.31126
C      5.86661   25.10771    4.26350
H      6.57556   24.85276    3.46641
H      5.19690   25.88587    3.85155
H      4.85684   18.11327    5.74098
H      6.11023   18.47360    4.53704
C      5.01474   20.23238    7.70011
H      3.96267   20.43535    7.45870
H      5.09298   19.24876    8.19070
H      5.38970   21.01249    8.37568
C      7.64108   19.61338    6.72140
H      7.51948   18.68040    7.29517
H      8.26906   19.41648    5.84242
H      8.11546   20.38524    7.34445
C      6.60752   25.65524    5.45261
H      5.93884   26.04868    6.23101
H      7.27558   24.90601    5.89622
H      7.21660   26.50381    5.10448
C      3.25489   22.90573    5.94289
H      2.86732   23.02031    6.96554
H      2.39335   22.74033    5.28365
H      3.88953   22.00266    5.92453
