14

H 0.000000 0.000000 0.000000
H 0.000000 0.000000 0.696970
H 0.000000 0.000000 1.393939
H 0.000000 0.000000 2.090909
H 0.000000 0.000000 2.787879
H 0.000000 0.000000 3.484848
H 0.000000 0.000000 4.181818
H 0.000000 0.000000 4.878788
H 0.000000 0.000000 5.575758
H 0.000000 0.000000 6.272727
H 0.000000 0.000000 6.969697
H 0.000000 0.000000 7.666667
H 0.000000 0.000000 8.363636
H 0.000000 0.000000 9.060606
