45

O     -0.36135   -3.23144    0.41699
Fe    -0.19840   -2.08462    2.08445
N      1.91075   -2.21376    2.55814
N      0.31317   -0.19862    1.27717
N     -2.23535   -1.75664    2.69407
O     -0.13303   -1.94009    4.26356
C     -0.01565   -0.12063   -0.15389
C      1.77038   -0.03348    1.47395
C      2.25871   -0.78609    2.68954
C      2.71514   -2.86932    1.51985
C     -0.42146    0.82526    2.05664
C     -1.92886    0.67587    2.09832
C     -2.46917   -0.34739    3.07049
C     -3.11904   -2.17309    1.59454
C      1.10055   -2.28542    4.87296
C      1.90612   -2.97762    3.80282
C     -1.34413   -2.31890    4.91942
C     -2.34135   -2.66457    3.83106
H     -2.93352   -3.22723    1.35591
H     -4.17173   -2.04150    1.89118
H     -2.90923   -1.57083    0.70373
H      0.26003    0.86993   -0.55381
H      0.52356   -0.90815   -0.69365
H     -1.08858   -0.28082   -0.30630
H      2.01970    1.03632    1.57402
H      2.27743   -0.38696    0.56786
H      2.56107   -2.37142    0.55733
H      3.78439   -2.83760    1.78833
H      2.39154   -3.91094    1.41689
H      1.77795   -0.38021    3.58794
H      3.34804   -0.65253    2.80928
H      2.91897   -3.25141    4.14659
H     -1.18366   -3.20908    5.54592
H     -1.69281   -1.49320    5.55994
H     -2.15267   -3.68072    3.44978
H     -2.01135   -0.17865    4.05349
H     -3.55593   -0.21267    3.20032
H     -2.32317    1.64831    2.43489
H     -2.35120    0.54659    1.09149
H     -0.02192    0.81237    3.08287
H     -0.16435    1.80927    1.62430
H      1.60032   -1.37778    5.25236
H      0.95441   -2.96510    5.72559
Br     0.96912   -4.65548    3.43823
Br    -4.09222   -2.72563    4.63820
