33

O      6.88068   22.71989    7.01037
Fe     6.24005   21.70836    4.96072
N      5.99666   19.63835    5.50263
C      5.68873   18.75576    4.36934
C      4.52618   19.19101    3.49258
C      3.94517   21.73276    3.42191
C      4.43778   23.10838    2.99068
N      5.74100   23.37632    3.61185
C      5.87034   20.67191    1.85854
C      7.27737   20.63934    2.39778
N      7.57908   21.12179    3.57843
H      4.41297   18.37948    2.75534
H      2.86711   21.67848    3.19134
H      3.58066   19.15611    4.06220
H      5.80288   21.60260    1.26945
H      5.81538   19.87675    1.09850
H      4.47565   23.18976    1.89463
H      3.70880   23.86305    3.32591
H      5.47389   17.73609    4.73430
H      6.60233   18.67336    3.76376
C      4.59264   20.50971    2.70180
H      3.85908   20.35448    1.89419
H      6.87054   19.33619    5.94294
H      5.29542   19.53928    6.24168
H      8.57515   21.09358    3.80628
H      6.49015   23.45028    2.92392
H      5.74190   24.26071    4.12328
N      8.19253   20.14832    1.56052
H      9.18383   20.15868    1.78246
H      7.93757   19.79965    0.64292
N      4.12942   21.68362    4.87657
H      3.69567   22.49074    5.33352
H      3.67431   20.86205    5.27364
