29

O     -2.52353    2.14757    2.02446
Fe    -2.35853    2.19343   -0.03916
N     -3.61203    3.85874   -0.35035
O     -1.93534    1.69862   -2.01175
N     -0.26909    2.48616    0.03831
O     -3.62457    0.54492   -0.09139
C     -4.86025    3.63657    0.39758
H     -5.52916    4.50559    0.27603
H     -5.36533    2.74046    0.01173
H     -4.62791    3.49800    1.46032
C     -2.86506    5.00148    0.19657
H     -1.93532    5.14891   -0.37220
H     -3.46825    5.92296    0.11980
H     -2.63108    4.81239    1.25264
C     -3.89830    4.05246   -1.77684
H     -4.44012    3.17900   -2.16837
H     -4.53929    4.94027   -1.91789
H     -2.96390    4.21280   -2.33269
H     -1.31125    1.00478   -2.27108
H     -2.51814    1.81556   -2.77573
H      0.13678    2.27897    0.95836
H     -3.86219    0.33969    0.82694
C      0.56373    2.97697   -0.79744
H      1.62390    3.14663   -0.54140
H      0.22396    3.24209   -1.80986
C     -3.80274   -0.61598   -0.91559
H     -3.06355   -1.39427   -0.66105
H     -4.82422   -1.00699   -0.78089
H     -3.67402   -0.30254   -1.95856
