23

O     11.57388    6.93336   13.46990
Fe    13.50591    7.50536   11.38561
N     15.04863    7.83210    9.69684
N     12.42646    8.48068    9.94614
O     14.93986    8.92029   12.16365
N     14.22361    5.64547   11.01326
C     14.53391    8.94537    8.89461
H     14.98167    9.89791    9.23606
H     14.84055    8.87160    7.83581
C     13.05927    9.08299    9.00977
C     16.29192    8.11231   10.38278
H     16.71791    7.15828   10.75087
C     16.04047    8.92987   11.63075
C     15.09535    6.56579    8.96862
H     14.30769    6.54937    8.19596
H     16.05473    6.42960    8.43868
C     14.81454    5.41550    9.89137
H     12.54516    9.73926    8.28603
H     16.88580    9.50135   12.07173
H     14.00868    4.83046   11.59640
H     11.41464    8.64280    9.98745
Br    17.66507    8.90734    9.28877
Br    15.28889    3.74847    9.30456
