29

O     -2.50019    2.15405    1.73253
Fe    -2.38187    2.18695    0.25277
N     -3.63537    3.85226   -0.05842
O     -1.93534    1.69862   -2.01175
N     -0.29243    2.47968    0.33024
O     -3.64791    0.53844    0.20054
C     -4.88359    3.63009    0.68951
H     -5.55250    4.49911    0.56796
H     -5.38867    2.73398    0.30366
H     -4.65125    3.49152    1.75225
C     -2.88840    4.99500    0.48850
H     -1.95866    5.14243   -0.08027
H     -3.49159    5.91648    0.41173
H     -2.65442    4.80591    1.54457
C     -3.92164    4.04598   -1.48491
H     -4.46346    3.17252   -1.87644
H     -4.56263    4.93379   -1.62596
H     -2.98724    4.20632   -2.04076
H     -1.31125    1.00478   -2.27108
H     -2.51814    1.81556   -2.77573
H      0.11344    2.27249    1.25029
H     -3.88553    0.33321    1.11887
C      0.54039    2.97049   -0.50551
H      1.60056    3.14015   -0.24947
H      0.20062    3.23561   -1.51793
C     -3.82608   -0.62246   -0.62366
H     -3.08689   -1.40075   -0.36912
H     -4.84756   -1.01347   -0.48896
H     -3.69736   -0.30902   -1.66663
