17

O      0.00000    0.00000    1.64343
Fe     0.00000    0.00000   -0.04343
O     -0.02532   -2.04942   -0.08520
O      0.01885    2.04941   -0.08892
O     -2.09136   -0.00340   -0.23373
O      2.09172    0.00000   -0.22968
O      0.00000    0.00000   -2.09343
H      0.26040   -2.63210   -0.81082
H      0.04961   -2.57039    0.73494
H     -0.25655    2.63228   -0.81830
H     -0.05040    2.57471    0.72889
H     -2.58023    0.46315    0.47053
H     -2.52460   -0.87680   -0.27150
H      2.52747    0.87055   -0.29423
H      2.57839   -0.44571    0.48949
H     -0.77522    0.08407   -2.67406
H      0.77001   -0.10212   -2.67802
