23

O     12.17301    7.11074   12.82355
Fe    12.90678    7.32798   12.03196
N     14.44950    7.65472   10.34319
N     11.82733    8.30330   10.59249
O     14.34073    8.74291   12.81000
N     13.62448    5.46809   11.65961
C     13.93478    8.76799    9.54096
H     14.38254    9.72053    9.88241
H     14.24142    8.69422    8.48216
C     12.46014    8.90561    9.65612
C     15.69279    7.93493   11.02913
H     16.11878    6.98090   11.39722
C     15.44134    8.75249   12.27710
C     14.49622    6.38841    9.61497
H     13.70856    6.37199    8.84231
H     15.45560    6.25222    9.08503
C     14.21541    5.23812   10.53772
H     11.94603    9.56188    8.93238
H     16.28667    9.32397   12.71808
H     13.40955    4.65308   12.24275
H     10.81551    8.46542   10.63380
Br    17.06594    8.72996    9.93512
Br    14.68976    3.57109    9.95091
