18

O      0.66282   -0.08462   -1.98567
O     -0.24679   -2.08690   -0.29385
O      0.48529    2.06453   -0.24836
N      2.32209   -0.40277    0.05076
O     -1.87800    0.34074   -0.54394
O     -0.33312    0.05252    1.71435
H     -0.47025   -2.50656    0.55702
H      0.40604    2.52023    0.60953
H      2.91727    0.33310   -0.34354
H      2.64005   -1.27231   -0.38971
H     -2.16696    1.17628   -0.94383
H     -2.43112   -0.34195   -0.95570
H      0.09815   -0.02801    2.57767
H     -1.27174    0.21562    1.89506
Fe     0.29591   -0.03859   -0.50592
H      2.56693   -0.47357    1.04230
Br     1.29481    3.26448   -1.40613
Br     0.15607   -3.46581   -1.46553
