17

O      0.00000    0.00000    1.37071
Fe     0.00000    0.00000    0.22929
O     -0.02532   -2.04942    0.18753
O      0.01885    2.04941    0.18381
O     -2.09136   -0.00340    0.03900
O      2.09172    0.00000    0.04305
O      0.00000    0.00000   -1.82071
H      0.26040   -2.63210   -0.53809
H      0.04961   -2.57039    1.00767
H     -0.25655    2.63228   -0.54557
H     -0.05040    2.57471    1.00161
H     -2.58023    0.46315    0.74326
H     -2.52460   -0.87680    0.00122
H      2.52747    0.87055   -0.02151
H      2.57839   -0.44571    0.76221
H     -0.77522    0.08407   -2.40133
H      0.77001   -0.10212   -2.40529
