17

O      0.00000    0.00000    1.62323
Fe     0.00000    0.00000   -0.02323
O     -0.02532   -2.04942   -0.06500
O      0.01885    2.04941   -0.06872
O     -2.09136   -0.00340   -0.21353
O      2.09172    0.00000   -0.20948
O      0.00000    0.00000   -2.07323
H      0.26040   -2.63210   -0.79062
H      0.04961   -2.57039    0.75514
H     -0.25655    2.63228   -0.79810
H     -0.05040    2.57471    0.74909
H     -2.58023    0.46315    0.49074
H     -2.52460   -0.87680   -0.25130
H      2.52747    0.87055   -0.27403
H      2.57839   -0.44571    0.50969
H     -0.77522    0.08407   -2.65386
H      0.77001   -0.10212   -2.65782
