18

O      0.61423   -0.07853   -1.78968
O     -0.19820   -2.09299   -0.48984
O      0.53388    2.05844   -0.44435
N      2.37068   -0.40886   -0.14523
O     -1.87800    0.34074   -0.54394
O     -0.33312    0.05252    1.71435
H     -0.42166   -2.51265    0.36103
H      0.45463    2.51414    0.41354
H      2.96586    0.32701   -0.53953
H      2.68864   -1.27840   -0.58570
H     -2.16696    1.17628   -0.94383
H     -2.43112   -0.34195   -0.95570
H      0.09815   -0.02801    2.57767
H     -1.27174    0.21562    1.89506
Fe     0.34450   -0.04468   -0.70191
H      2.61552   -0.47966    0.84631
Br     1.34340    3.25839   -1.60212
Br     0.20466   -3.47190   -1.66152
