33

O      6.94883   22.82750    7.22841
Fe     6.17190   21.60075    4.74268
N      5.92851   19.53074    5.28459
C      5.62058   18.64815    4.15130
C      4.45803   19.08340    3.27454
C      3.87702   21.62515    3.20387
C      4.36963   23.00077    2.77264
N      5.67285   23.26871    3.39381
C      5.80219   20.56430    1.64050
C      7.20922   20.53173    2.17974
N      7.51093   21.01418    3.36039
H      4.34482   18.27187    2.53730
H      2.79896   21.57087    2.97330
H      3.51251   19.04850    3.84416
H      5.73473   21.49499    1.05141
H      5.74723   19.76914    0.88046
H      4.40750   23.08215    1.67659
H      3.64065   23.75544    3.10787
H      5.40574   17.62848    4.51626
H      6.53418   18.56575    3.54572
C      4.52449   20.40210    2.48376
H      3.79093   20.24687    1.67615
H      6.80239   19.22858    5.72490
H      5.22727   19.43167    6.02364
H      8.50700   20.98597    3.58824
H      6.42200   23.34267    2.70588
H      5.67375   24.15310    3.90524
N      8.12438   20.04071    1.34248
H      9.11568   20.05107    1.56442
H      7.86942   19.69204    0.42488
N      4.06127   21.57601    4.65853
H      3.62752   22.38313    5.11548
H      3.60616   20.75444    5.05560
