37

O      1.10397    0.47204    3.69552
N     -0.01649   -2.08070    0.35956
C      0.88834   -2.02899   -0.80372
H      0.33327   -1.58504   -1.64486
H      1.18190   -3.04947   -1.10843
C     -1.37733   -2.53862    0.01770
H     -1.85185   -2.80436    0.97372
H     -1.34355   -3.44561   -0.61160
C      2.09861   -1.18720   -0.47315
H      2.69176   -1.66576    0.32059
H      2.75971   -1.09746   -1.35112
C     -2.16882   -1.45485   -0.66334
H     -3.21850   -1.77371   -0.77837
H     -1.77555   -1.19577   -1.66281
C      1.53031    1.18681   -0.99124
H      2.51470    1.50730   -1.37545
H      0.97074    0.78399   -1.84921
C     -2.66086    0.91524   -0.28574
H     -3.14307    1.39604    0.57735
H     -3.41830    0.71617   -1.05891
C     -1.53127    1.76036   -0.82131
H     -1.08287    1.29291   -1.70993
H     -1.89689    2.75859   -1.12658
C      0.80858    2.35717   -0.36195
H      1.39810    2.75336    0.47948
H      0.65865    3.17901   -1.08316
N     -0.47675    1.89467    0.19732
Fe    -0.21028   -0.05326    1.05037
N      1.66735    0.12949    0.01093
O     -2.10326   -0.31479    0.19640
H      2.29599    0.44884    0.75078
N      0.44939   -2.81295    1.46541
H      1.27895   -2.36431    1.85042
H      0.69376   -3.76952    1.18710
N     -0.98285    2.59327    1.30213
H     -1.20277    3.56488    1.05620
H     -0.28599    2.58366    2.04760
