23

O      0.39299   -0.11047   -2.45049
O     -0.52170   -2.07818   -0.23040
O      0.08708    2.13902   -0.31843
P      2.08008   -0.28622    0.38745
N     -2.48954    0.36376   -0.40349
O     -0.64925    0.13074    1.73012
H     -0.44904   -2.37325    0.69366
H      0.25540    2.43204    0.59357
H      2.93620    0.66302   -0.22166
H      2.59439   -1.51552   -0.09307
H     -2.84226    1.25261   -0.03529
H     -2.72069    0.37873   -1.40193
H      0.00201    0.06919    2.44469
H     -1.49736    0.26955    2.17863
Fe    -0.35591    0.05129   -0.18247
H      2.59541   -0.28797    1.71197
H     -3.08246   -0.37040   -0.00404
N      1.16517    2.69351   -1.07327
H      0.81768    3.60816   -1.39149
H      1.18033    2.09519   -1.90674
N      0.34449   -2.95293   -0.95283
H      0.52376   -2.42326   -1.81327
H     -0.25295   -3.74360   -1.22961
