23

O      0.31811    0.01319   -2.14099
O     -0.34171   -2.14590   -0.36927
O      0.07797    2.13762   -0.25050
P      2.27874   -0.05054    0.22748
N     -2.27633    0.34075   -0.63425
O     -0.50235   -0.00774    1.78455
H     -0.29125   -2.72988    0.40104
H     -0.04963   -2.67424   -1.12796
H      0.21245    2.33993    0.69112
H      3.16331    0.02985   -0.87931
H      2.73871   -1.24638    0.83435
H     -2.69719    0.99509    0.03150
H     -2.45474    0.74933   -1.55702
H     -1.32007   -0.07150    2.31196
Fe    -0.14170   -0.01611   -0.47631
H      2.81530    0.93694    1.08277
H     -2.84213   -0.51299   -0.59701
N      0.63723   -0.17022    2.58810
H      0.63611    0.57358    3.29585
H      0.55295   -1.05986    3.09300
N      1.30087    2.56617   -0.86762
H      1.15845    3.56836   -1.05404
H      1.24400    2.10899   -1.78554
