29

O     -2.54688    2.14108    2.31638
Fe    -2.33518    2.19992   -0.33108
N     -3.58868    3.86523   -0.64227
O     -1.93534    1.69862   -2.01175
N     -0.24574    2.49265   -0.25361
O     -3.60122    0.55141   -0.38331
C     -4.83690    3.64306    0.10566
H     -5.50581    4.51208   -0.01589
H     -5.34198    2.74695   -0.28019
H     -4.60456    3.50449    1.16840
C     -2.84171    5.00797   -0.09535
H     -1.91197    5.15540   -0.66412
H     -3.44490    5.92945   -0.17212
H     -2.60773    4.81888    0.96072
C     -3.87495    4.05895   -2.06876
H     -4.41677    3.18549   -2.46029
H     -4.51594    4.94676   -2.20981
H     -2.94055    4.21929   -2.62461
H     -1.31125    1.00478   -2.27108
H     -2.51814    1.81556   -2.77573
H      0.16013    2.28546    0.66644
H     -3.83884    0.34618    0.53502
C      0.58708    2.98346   -1.08936
H      1.64725    3.15312   -0.83332
H      0.24731    3.24858   -2.10178
C     -3.77939   -0.60949   -1.20751
H     -3.04020   -1.38778   -0.95297
H     -4.80087   -1.00050   -1.07281
H     -3.65067   -0.29605   -2.25048
