17

O      0.00000    0.00000    1.63333
Fe     0.00000    0.00000   -0.03333
O     -0.02532   -2.04942   -0.07510
O      0.01885    2.04941   -0.07882
O     -2.09136   -0.00340   -0.22363
O      2.09172    0.00000   -0.21958
O      0.00000    0.00000   -2.08333
H      0.26040   -2.63210   -0.80072
H      0.04961   -2.57039    0.74504
H     -0.25655    2.63228   -0.80820
H     -0.05040    2.57471    0.73899
H     -2.58023    0.46315    0.48063
H     -2.52460   -0.87680   -0.26140
H      2.52747    0.87055   -0.28413
H      2.57839   -0.44571    0.49959
H     -0.77522    0.08407   -2.66396
H      0.77001   -0.10212   -2.66792
