17

O      0.00000    0.00000    1.30000
Fe     0.00000    0.00000    0.30000
O     -0.02532   -2.04942    0.25823
O      0.01885    2.04941    0.25452
O     -2.09136   -0.00340    0.10970
O      2.09172    0.00000    0.11376
O      0.00000    0.00000   -1.75000
H      0.26040   -2.63210   -0.46739
H      0.04961   -2.57039    1.07838
H     -0.25655    2.63228   -0.47486
H     -0.05040    2.57471    1.07232
H     -2.58023    0.46315    0.81397
H     -2.52460   -0.87680    0.07193
H      2.52747    0.87055    0.04920
H      2.57839   -0.44571    0.83292
H     -0.77522    0.08407   -2.33062
H      0.77001   -0.10212   -2.33458
