23

O      0.45793    0.02211   -2.64722
O     -0.34171   -2.14590   -0.36927
O      0.07797    2.13762   -0.25050
P      2.13892   -0.05946    0.73371
N     -2.41615    0.33183   -0.12802
O     -0.50235   -0.00774    1.78455
H     -0.29125   -2.72988    0.40104
H     -0.04963   -2.67424   -1.12796
H      0.21245    2.33993    0.69112
H      3.02349    0.02093   -0.37308
H      2.59889   -1.25530    1.34058
H     -2.83701    0.98617    0.53773
H     -2.59456    0.74041   -1.05079
H     -1.32007   -0.07150    2.31196
Fe    -0.28152   -0.02503    0.02992
H      2.67548    0.92802    1.58900
H     -2.98195   -0.52191   -0.09078
N      0.63723   -0.17022    2.58810
H      0.63611    0.57358    3.29585
H      0.55295   -1.05986    3.09300
N      1.30087    2.56617   -0.86762
H      1.15845    3.56836   -1.05404
H      1.24400    2.10899   -1.78554
