23

O     11.66813    6.96126   13.36823
Fe    13.41166    7.47746   11.48728
N     14.95438    7.80420    9.79851
N     12.33221    8.45278   10.04781
O     14.84561    8.89239   12.26532
N     14.12936    5.61757   11.11493
C     14.43966    8.91747    8.99628
H     14.88742    9.87001    9.33773
H     14.74630    8.84370    7.93748
C     12.96502    9.05509    9.11144
C     16.19767    8.08441   10.48445
H     16.62366    7.13038   10.85254
C     15.94622    8.90197   11.73242
C     15.00110    6.53789    9.07029
H     14.21344    6.52147    8.29763
H     15.96048    6.40170    8.54035
C     14.72029    5.38760    9.99304
H     12.45091    9.71136    8.38770
H     16.79155    9.47345   12.17340
H     13.91443    4.80256   11.69807
H     11.32039    8.61490   10.08912
Br    17.57082    8.87944    9.39044
Br    15.19464    3.72057    9.40623
