33

O      6.81798   22.62089    6.80976
Fe     6.30275   21.80736    5.16133
N      6.05936   19.73735    5.70324
C      5.75143   18.85476    4.56995
C      4.58888   19.29001    3.69319
C      4.00787   21.83176    3.62252
C      4.50048   23.20738    3.19129
N      5.80370   23.47532    3.81246
C      5.93304   20.77091    2.05915
C      7.34007   20.73834    2.59839
N      7.64178   21.22079    3.77904
H      4.47567   18.47848    2.95595
H      2.92981   21.77748    3.39195
H      3.64336   19.25511    4.26281
H      5.86558   21.70160    1.47006
H      5.87808   19.97575    1.29911
H      4.53835   23.28876    2.09524
H      3.77150   23.96205    3.52652
H      5.53659   17.83509    4.93491
H      6.66503   18.77236    3.96437
C      4.65534   20.60871    2.90241
H      3.92178   20.45348    2.09480
H      6.93324   19.43519    6.14355
H      5.35812   19.63828    6.44229
H      8.63785   21.19258    4.00689
H      6.55285   23.54928    3.12453
H      5.80460   24.35971    4.32389
N      8.25523   20.24732    1.76113
H      9.24653   20.25768    1.98307
H      8.00027   19.89865    0.84353
N      4.19212   21.78262    5.07718
H      3.75837   22.58974    5.53413
H      3.73701   20.96105    5.47425
