24

O     -0.27594    0.76201   -3.23134
N      2.29168    0.22986   -0.53420
H      2.56211    0.23533   -1.52221
H      2.68659   -0.61890   -0.11827
Fe     0.16700    0.23109   -0.43682
H      2.76696    1.01397   -0.08099
P      0.27629    3.03788   -0.55478
H      1.11728    3.57301   -1.56651
H     -0.87528    3.83357   -0.80306
H      0.79082    3.72520    0.58078
P     -0.20068   -2.18094   -1.32815
H     -0.75509   -2.53322   -2.58381
H      0.94590   -3.01171   -1.28481
H     -1.05685   -2.89094   -0.44426
P     -2.10035    0.65007   -0.03639
H     -2.71159    1.48690   -1.01589
H     -2.88238   -0.52810   -0.13879
P      0.18866   -0.28283    1.90425
H      0.21977    0.75208    2.87627
H     -0.89557   -1.05517    2.39300
N     -2.40986    1.13703    1.54607
H     -2.07656    2.06975    1.78841
H     -3.36243    1.00591    1.89552
Br     1.90506   -1.50647    2.43819
