18

H 0.000000 0.000000 0.000000
H 0.000000 0.000000 2.684848
H 0.000000 0.000000 5.369697
H 0.000000 0.000000 8.054545
H 0.000000 0.000000 10.739394
H 0.000000 0.000000 13.424242
H 0.000000 0.000000 16.109091
H 0.000000 0.000000 18.793939
H 0.000000 0.000000 21.478788
H 0.000000 0.000000 24.163636
H 0.000000 0.000000 26.848485
H 0.000000 0.000000 29.533333
H 0.000000 0.000000 32.218182
H 0.000000 0.000000 34.903030
H 0.000000 0.000000 37.587879
H 0.000000 0.000000 40.272727
H 0.000000 0.000000 42.957576
H 0.000000 0.000000 45.642424
