45

O     -0.35811   -3.20861    0.45018
Fe    -0.20164   -2.10745    2.05126
N      1.90751   -2.23659    2.52495
N      0.30993   -0.22145    1.24398
N     -2.23859   -1.77947    2.66088
O     -0.13627   -1.96292    4.23037
C     -0.01889   -0.14346   -0.18708
C      1.76714   -0.05631    1.44076
C      2.25547   -0.80892    2.65635
C      2.71190   -2.89215    1.48666
C     -0.42470    0.80243    2.02345
C     -1.93210    0.65304    2.06513
C     -2.47241   -0.37022    3.03730
C     -3.12228   -2.19592    1.56135
C      1.09731   -2.30825    4.83977
C      1.90288   -3.00045    3.76963
C     -1.34737   -2.34173    4.88623
C     -2.34459   -2.68740    3.79787
H     -2.93676   -3.25006    1.32272
H     -4.17497   -2.06433    1.85799
H     -2.91247   -1.59366    0.67054
H      0.25679    0.84710   -0.58700
H      0.52032   -0.93098   -0.72684
H     -1.09182   -0.30365   -0.33949
H      2.01646    1.01349    1.54083
H      2.27419   -0.40979    0.53467
H      2.55783   -2.39425    0.52414
H      3.78115   -2.86043    1.75514
H      2.38830   -3.93377    1.38370
H      1.77471   -0.40304    3.55475
H      3.34480   -0.67536    2.77609
H      2.91573   -3.27424    4.11340
H     -1.18690   -3.23191    5.51273
H     -1.69605   -1.51603    5.52675
H     -2.15591   -3.70355    3.41659
H     -2.01459   -0.20148    4.02030
H     -3.55917   -0.23550    3.16713
H     -2.32641    1.62548    2.40170
H     -2.35444    0.52376    1.05830
H     -0.02516    0.78954    3.04968
H     -0.16759    1.78644    1.59111
H      1.59708   -1.40061    5.21917
H      0.95117   -2.98793    5.69240
Br     0.96588   -4.67831    3.40504
Br    -4.09546   -2.74846    4.60501
