52

O      7.58156   23.25706    6.16866
Fe     6.16773   22.00124    4.80173
N      5.82005   20.27135    5.92239
C      5.56420   19.09726    5.05564
C      4.49345   19.37386    4.01564
P      4.90357   20.99249    3.31811
C      3.50985   22.07443    2.92754
C      4.08653   23.46784    3.08947
N      4.83126   23.63252    4.36167
C      5.94013   20.70958    1.79487
C      7.35479   20.53346    2.33576
N      7.71087   21.51576    3.36994
C      8.95278   21.11417    4.04085
C      7.88639   22.84797    2.78197
H      4.47159   18.61353    3.21841
H      3.13838   21.90149    1.90406
H      2.67710   21.87160    3.61820
H      3.48263   19.41271    4.44977
H      5.86614   21.66011    1.24099
H      8.08438   20.57780    1.50688
H      7.43912   19.53157    2.78255
H      8.68332   22.83481    2.01732
H      6.95230   23.17463    2.30819
H      8.16152   23.55314    3.57695
H      9.79588   21.12880    3.32879
H      9.15149   21.80724    4.86804
H      8.84674   20.09391    4.42902
H      4.79503   23.67619    2.27377
H      3.29582   24.23669    3.02571
C      3.90624   23.63359    5.50165
H      4.48000   23.73842    6.43076
H      3.20061   24.47906    5.42368
H      3.33173   22.70164    5.52966
C      5.54479   24.91972    4.33760
H      6.13627   25.02170    5.25427
H      6.21829   24.95989    3.47480
H      4.81980   25.74769    4.26079
H      5.27622   18.25318    5.70602
H      6.51631   18.83331    4.57608
C      4.60283   20.52874    6.79189
H      3.79887   20.81423    6.09982
H      4.87363   21.41596    7.38370
C      6.95978   19.97657    6.80355
H      6.73626   19.08291    7.40775
H      7.85686   19.78854    6.20568
H      7.14667   20.83475    7.45849
N      5.43041   19.65021    1.00397
H      5.34566   19.85980    0.01399
H      5.90510   18.76102    1.13046
N      4.25098   19.41306    7.56622
H      3.32648   19.03010    7.40836
H      4.46086   19.46736    8.55654
