23

O      0.28111   -0.50579   -2.02328
O     -0.57054   -2.20388    0.05752
O      0.18933    2.08207   -0.28257
P      2.30972   -0.55754    0.05634
N     -2.26070    0.27990   -0.63675
O     -0.47882    0.27163    1.69224
H     -1.01373   -2.61377    0.81456
H     -0.44790   -2.89318   -0.61232
H      3.16724    0.33118   -0.64201
H      2.77127   -1.79303   -0.46383
H     -2.44549    1.01432   -1.32532
H     -2.77415   -0.54280   -0.96654
H     -0.05123   -0.17854    2.43422
H     -0.23636    1.24145    1.77340
Fe    -0.16234   -0.16681   -0.38868
H      2.94239   -0.56589    1.32942
H     -2.71138    0.56790    0.23656
N      0.24389    2.71179    0.98275
H      1.19077    3.09130    1.11489
H     -0.41483    3.50186    0.97497
N      0.49817    2.81617   -1.41346
H     -0.13512    3.62353   -1.46170
H      1.46051    3.16516   -1.32741
