37

O      0.67474    0.30048    2.83162
N      0.41274   -1.90914    1.22346
C      1.31757   -1.85743    0.06018
H      0.76250   -1.41348   -0.78096
H      1.61113   -2.87791   -0.24453
C     -0.94810   -2.36706    0.88160
H     -1.42262   -2.63280    1.83762
H     -0.91432   -3.27405    0.25230
C      2.52784   -1.01564    0.39075
H      3.12099   -1.49420    1.18449
H      3.18894   -0.92590   -0.48722
C     -1.73959   -1.28329    0.20056
H     -2.78927   -1.60215    0.08553
H     -1.34632   -1.02421   -0.79891
C      1.95954    1.35837   -0.12734
H      2.94393    1.67886   -0.51155
H      1.39997    0.95555   -0.98531
C     -2.23163    1.08680    0.57816
H     -2.71384    1.56760    1.44125
H     -2.98907    0.88773   -0.19501
C     -1.10204    1.93192    0.04259
H     -0.65364    1.46447   -0.84603
H     -1.46766    2.93015   -0.26268
C      1.23781    2.52873    0.50195
H      1.82733    2.92492    1.34338
H      1.08788    3.35057   -0.21926
N     -0.04752    2.06623    1.06122
Fe     0.21895    0.11830    1.91427
N      2.09658    0.30105    0.87483
O     -1.67403   -0.14323    1.06030
H      2.72522    0.62040    1.61468
N      0.87862   -2.64139    2.32931
H      1.70818   -2.19275    2.71432
H      1.12299   -3.59796    2.05100
N     -0.55362    2.76483    2.16603
H     -0.77354    3.73644    1.92010
H      0.14324    2.75522    2.91150
