23

O      0.35575    0.01559   -2.27728
O     -0.34171   -2.14590   -0.36927
O      0.07797    2.13762   -0.25050
P      2.24110   -0.05294    0.36377
N     -2.31397    0.33835   -0.49796
O     -0.50235   -0.00774    1.78455
H     -0.29125   -2.72988    0.40104
H     -0.04963   -2.67424   -1.12796
H      0.21245    2.33993    0.69112
H      3.12567    0.02745   -0.74302
H      2.70107   -1.24878    0.97064
H     -2.73483    0.99269    0.16779
H     -2.49238    0.74693   -1.42073
H     -1.32007   -0.07150    2.31196
Fe    -0.17934   -0.01851   -0.34002
H      2.77766    0.93454    1.21906
H     -2.87977   -0.51539   -0.46072
N      0.63723   -0.17022    2.58810
H      0.63611    0.57358    3.29585
H      0.55295   -1.05986    3.09300
N      1.30087    2.56617   -0.86762
H      1.15845    3.56836   -1.05404
H      1.24400    2.10899   -1.78554
