54

O      7.13838   22.75391    6.44582
Fe     6.24687   22.26229    5.17766
P      6.05757   20.23358    6.24880
C      5.32681   18.93705    5.17530
C      4.30713   19.61309    4.28024
P      5.12528   21.10542    3.62803
C      3.87506   22.25431    2.99252
C      4.41378   23.65396    3.20383
N      5.06736   23.90366    4.51224
C      6.23079   20.56868    2.26093
C      7.66494   20.53159    2.75819
P      7.99418   22.10233    3.64366
C      9.60366   21.96458    4.44674
C      8.26659   23.30300    2.31209
H      3.94567   18.96813    3.46248
H      3.67339   22.07472    1.92405
H      2.94212   22.06402    3.53710
H      3.42981   19.95261    4.85505
H      6.11470   21.30014    1.44459
H      5.89180   19.59479    1.87165
H      8.38547   20.38189    1.93683
H      7.81482   19.71452    3.48150
H      9.07203   22.92820    1.65928
H      7.35985   23.45387    1.71080
H      8.58151   24.26498    2.74267
H     10.38247   21.72562    3.70500
H      9.82694   22.92960    4.92669
H      9.57714   21.19646    5.22917
H      5.18379   23.84691    2.44314
H      3.61972   24.40443    3.04516
C      4.11104   24.13140    5.61460
H      4.72102   24.43362    6.47406
H      3.46701   24.99237    5.35852
C      5.89983   25.12603    4.31076
H      6.60878   24.87108    3.51367
H      5.23012   25.90419    3.89881
H      4.89006   18.13159    5.78824
H      6.14345   18.49192    4.58430
C      5.04796   20.25070    7.74737
H      3.99589   20.45367    7.50596
H      5.12620   19.26708    8.23796
H      5.42292   21.03081    8.42294
C      7.67430   19.63170    6.76866
H      7.55270   18.69872    7.34243
H      8.30228   19.43480    5.88968
H      8.14868   20.40356    7.39171
C      6.64074   25.67356    5.49987
H      5.97206   26.06700    6.27827
H      7.30880   24.92433    5.94348
H      7.24982   26.52213    5.15174
C      3.28811   22.92405    5.99015
H      2.90054   23.03863    7.01280
H      2.42657   22.75865    5.33091
H      3.92275   22.02098    5.97179
