22

O      0.65935   -0.86116   -2.13824
N      2.79878   -0.75498   -0.41972
H      3.21989   -0.62371   -1.34293
H      3.07628   -1.69324   -0.11662
Fe     0.64937   -0.53445   -0.87688
H      3.26331   -0.09277    0.20717
P      0.74537    1.73298   -1.27045
H      0.11935    2.15843   -2.47203
H      0.11912    2.58571   -0.32333
P     -0.57044   -2.48385   -0.63318
H     -1.46617   -2.76143   -1.69515
H      0.29666   -3.60683   -0.68912
H     -1.34624   -2.79221    0.51492
P     -1.98622    0.47071   -0.94972
H     -2.37131    0.04025   -2.24560
H     -2.94231   -0.23275   -0.16537
H     -2.60801    1.75281   -0.92983
P      0.55164   -0.14519    1.37854
H      0.89396   -1.22971    2.23524
H     -0.72423    0.18140    1.91543
Br     1.82238    1.43575    2.14547
Br     2.73125    2.59375   -1.42380
