45

O     -0.33865   -3.07168    0.64928
Fe    -0.22110   -2.24438    1.85216
N      1.88805   -2.37352    2.32585
N      0.29047   -0.35838    1.04488
N     -2.25805   -1.91640    2.46178
O     -0.15573   -2.09985    4.03127
C     -0.03835   -0.28039   -0.38618
C      1.74768   -0.19324    1.24166
C      2.23601   -0.94585    2.45725
C      2.69244   -3.02908    1.28756
C     -0.44416    0.66550    1.82435
C     -1.95156    0.51611    1.86603
C     -2.49187   -0.50715    2.83820
C     -3.14174   -2.33285    1.36225
C      1.07785   -2.44518    4.64067
C      1.88342   -3.13738    3.57053
C     -1.36683   -2.47866    4.68713
C     -2.36405   -2.82433    3.59877
H     -2.95622   -3.38699    1.12362
H     -4.19443   -2.20126    1.65889
H     -2.93193   -1.73059    0.47144
H      0.23733    0.71017   -0.78610
H      0.50086   -1.06791   -0.92594
H     -1.11128   -0.44058   -0.53859
H      1.99700    0.87656    1.34173
H      2.25473   -0.54672    0.33557
H      2.53837   -2.53118    0.32504
H      3.76169   -2.99736    1.55604
H      2.36884   -4.07070    1.18460
H      1.75525   -0.53997    3.35565
H      3.32534   -0.81229    2.57699
H      2.89627   -3.41117    3.91430
H     -1.20636   -3.36884    5.31363
H     -1.71551   -1.65296    5.32765
H     -2.17537   -3.84048    3.21749
H     -2.03405   -0.33841    3.82120
H     -3.57863   -0.37243    2.96803
H     -2.34587    1.48855    2.20260
H     -2.37390    0.38683    0.85920
H     -0.04462    0.65261    2.85058
H     -0.18705    1.64951    1.39201
H      1.57762   -1.53754    5.02007
H      0.93171   -3.12486    5.49330
Br     0.94642   -4.81524    3.20594
Br    -4.11492   -2.88539    4.40591
