29

O     -2.49375    2.15584    1.65200
Fe    -2.38831    2.18516    0.33330
N     -3.64181    3.85047    0.02211
O     -1.93534    1.69862   -2.01175
N     -0.29887    2.47789    0.41077
O     -3.65435    0.53665    0.28107
C     -4.89003    3.62830    0.77004
H     -5.55894    4.49732    0.64849
H     -5.39511    2.73219    0.38419
H     -4.65769    3.48973    1.83278
C     -2.89484    4.99321    0.56903
H     -1.96510    5.14064    0.00026
H     -3.49803    5.91469    0.49226
H     -2.66086    4.80412    1.62510
C     -3.92808    4.04419   -1.40438
H     -4.46990    3.17073   -1.79591
H     -4.56907    4.93200   -1.54543
H     -2.99368    4.20453   -1.96023
H     -1.31125    1.00478   -2.27108
H     -2.51814    1.81556   -2.77573
H      0.10700    2.27070    1.33082
H     -3.89197    0.33142    1.19940
C      0.53395    2.96870   -0.42498
H      1.59412    3.13836   -0.16894
H      0.19418    3.23382   -1.43740
C     -3.83252   -0.62425   -0.54313
H     -3.09333   -1.40254   -0.28859
H     -4.85400   -1.01526   -0.40843
H     -3.70380   -0.31081   -1.58610
