14

H 0.000000 0.000000 0.000000
H 0.000000 0.000000 1.666667
H 0.000000 0.000000 3.333333
H 0.000000 0.000000 5.000000
H 0.000000 0.000000 6.666667
H 0.000000 0.000000 8.333333
H 0.000000 0.000000 10.000000
H 0.000000 0.000000 11.666667
H 0.000000 0.000000 13.333333
H 0.000000 0.000000 15.000000
H 0.000000 0.000000 16.666667
H 0.000000 0.000000 18.333333
H 0.000000 0.000000 20.000000
H 0.000000 0.000000 21.666667
