29

O     -2.48570    2.15808    1.55134
Fe    -2.39636    2.18292    0.43396
N     -3.64986    3.84823    0.12277
O     -1.93534    1.69862   -2.01175
N     -0.30692    2.47565    0.51143
O     -3.66240    0.53441    0.38173
C     -4.89808    3.62606    0.87070
H     -5.56699    4.49508    0.74915
H     -5.40316    2.72995    0.48485
H     -4.66574    3.48749    1.93344
C     -2.90289    4.99097    0.66969
H     -1.97315    5.13840    0.10092
H     -3.50608    5.91245    0.59292
H     -2.66891    4.80188    1.72576
C     -3.93613    4.04195   -1.30372
H     -4.47795    3.16849   -1.69525
H     -4.57712    4.92976   -1.44477
H     -3.00173    4.20229   -1.85957
H     -1.31125    1.00478   -2.27108
H     -2.51814    1.81556   -2.77573
H      0.09895    2.26846    1.43148
H     -3.90002    0.32918    1.30006
C      0.52590    2.96646   -0.32432
H      1.58607    3.13612   -0.06828
H      0.18613    3.23158   -1.33674
C     -3.84057   -0.62649   -0.44247
H     -3.10138   -1.40478   -0.18793
H     -4.86205   -1.01750   -0.30777
H     -3.71185   -0.31305   -1.48544
