36

O      7.70085   22.60009    6.77792
Fe     6.10806   21.77322    5.07390
N      5.33473   20.06977    5.84897
C      5.54763   19.06961    4.77301
C      4.56268   19.27033    3.62633
C      3.69209   21.78769    3.03216
C      4.42080   23.11399    3.24854
N      4.89331   23.33789    4.62747
C      5.68713   20.69794    1.74958
C      7.08580   20.69687    2.30468
O      7.24400   21.63169    3.40768
H      4.74082   18.40428    2.96935
H      3.16723   22.00612    2.08667
H      3.55722   19.08927    4.03947
H      5.52570   21.61120    1.15520
H      5.70748   19.88292    1.00568
H      7.79699   21.00362    1.52049
H      7.38820   19.69773    2.66065
H      5.28943   23.21410    2.58202
H      3.72316   23.92811    2.98582
H      6.58916   19.21598    4.43305
C      4.47215   20.47490    2.66295
H      3.73829   20.04646    1.96134
H      5.85270   19.80520    6.69374
H      4.34581   20.08730    6.11946
H      8.18173   21.85572    3.52245
H      5.39179   24.23034    4.70775
H      4.09902   23.40814    5.27263
C      2.60162   21.57332    4.06648
H      1.94877   22.45778    4.14114
H      1.95690   20.72365    3.79826
H      2.99850   21.37046    5.07510
C      5.44353   17.66312    5.33845
H      5.68167   16.92163    4.56156
H      6.14833   17.51342    6.17158
H      4.42086   17.46463    5.69787
