33

O      6.96246   22.84902    7.27202
Fe     6.15827   21.57923    4.69907
N      5.91488   19.50922    5.24098
C      5.60695   18.62663    4.10769
C      4.44440   19.06188    3.23093
C      3.86339   21.60363    3.16026
C      4.35600   22.97925    2.72903
N      5.65922   23.24719    3.35020
C      5.78856   20.54278    1.59689
C      7.19559   20.51021    2.13613
N      7.49730   20.99266    3.31678
H      4.33119   18.25035    2.49369
H      2.78533   21.54935    2.92969
H      3.49888   19.02698    3.80055
H      5.72110   21.47347    1.00780
H      5.73360   19.74762    0.83685
H      4.39387   23.06063    1.63298
H      3.62702   23.73392    3.06426
H      5.39211   17.60696    4.47265
H      6.52055   18.54423    3.50211
C      4.51086   20.38058    2.44015
H      3.77730   20.22535    1.63254
H      6.78876   19.20706    5.68129
H      5.21364   19.41015    5.98003
H      8.49337   20.96445    3.54463
H      6.40837   23.32115    2.66227
H      5.66012   24.13158    3.86163
N      8.11075   20.01919    1.29887
H      9.10205   20.02955    1.52081
H      7.85579   19.67052    0.38127
N      4.04764   21.55449    4.61492
H      3.61389   22.36161    5.07187
H      3.59253   20.73292    5.01199
