36

O      7.65534   22.57646    6.72924
Fe     6.15357   21.79685    5.12258
N      5.38024   20.09340    5.89765
C      5.59314   19.09324    4.82169
C      4.60819   19.29396    3.67501
C      3.73760   21.81132    3.08084
C      4.46631   23.13762    3.29722
N      4.93882   23.36152    4.67615
C      5.73264   20.72157    1.79826
C      7.13131   20.72050    2.35336
O      7.28951   21.65532    3.45636
H      4.78633   18.42791    3.01803
H      3.21274   22.02975    2.13535
H      3.60273   19.11290    4.08815
H      5.57121   21.63483    1.20388
H      5.75299   19.90655    1.05436
H      7.84250   21.02725    1.56917
H      7.43371   19.72136    2.70933
H      5.33494   23.23773    2.63070
H      3.76867   23.95174    3.03450
H      6.63467   19.23961    4.48173
C      4.51766   20.49853    2.71163
H      3.78380   20.07009    2.01002
H      5.89821   19.82883    6.74242
H      4.39132   20.11093    6.16814
H      8.22724   21.87935    3.57113
H      5.43730   24.25397    4.75643
H      4.14453   23.43177    5.32131
C      2.64713   21.59695    4.11516
H      1.99428   22.48141    4.18982
H      2.00241   20.74728    3.84694
H      3.04401   21.39409    5.12378
C      5.48904   17.68675    5.38713
H      5.72718   16.94526    4.61024
H      6.19384   17.53705    6.22026
H      4.46637   17.48826    5.74655
