36

O      7.35629   22.42122    6.40930
Fe     6.45262   21.95209    5.44252
N      5.67929   20.24864    6.21759
C      5.89219   19.24848    5.14163
C      4.90724   19.44920    3.99495
C      4.03665   21.96656    3.40078
C      4.76536   23.29286    3.61716
N      5.23787   23.51676    4.99609
C      6.03169   20.87681    2.11820
C      7.43036   20.87574    2.67330
O      7.58856   21.81056    3.77630
H      5.08538   18.58315    3.33797
H      3.51179   22.18499    2.45529
H      3.90178   19.26814    4.40809
H      5.87026   21.79007    1.52382
H      6.05204   20.06179    1.37430
H      8.14155   21.18249    1.88911
H      7.73276   19.87660    3.02927
H      5.63399   23.39297    2.95064
H      4.06772   24.10698    3.35444
H      6.93372   19.39485    4.80167
C      4.81671   20.65377    3.03157
H      4.08285   20.22533    2.32996
H      6.19726   19.98407    7.06236
H      4.69037   20.26617    6.48808
H      8.52629   22.03459    3.89107
H      5.73635   24.40921    5.07637
H      4.44358   23.58701    5.64125
C      2.94618   21.75219    4.43510
H      2.29333   22.63665    4.50976
H      2.30146   20.90252    4.16688
H      3.34306   21.54933    5.44372
C      5.78809   17.84199    5.70707
H      6.02623   17.10050    4.93018
H      6.49289   17.69229    6.54020
H      4.76542   17.64350    6.06649
