36

O      7.76586   22.63384    6.84747
Fe     6.04305   21.73947    5.00435
N      5.26972   20.03602    5.77942
C      5.48262   19.03586    4.70346
C      4.49767   19.23658    3.55678
C      3.62708   21.75394    2.96261
C      4.35579   23.08024    3.17899
N      4.82830   23.30414    4.55792
C      5.62212   20.66419    1.68003
C      7.02079   20.66312    2.23513
O      7.17899   21.59794    3.33813
H      4.67581   18.37053    2.89980
H      3.10222   21.97237    2.01712
H      3.49221   19.05552    3.96992
H      5.46069   21.57745    1.08565
H      5.64247   19.84917    0.93613
H      7.73198   20.96987    1.45094
H      7.32319   19.66398    2.59110
H      5.22442   23.18035    2.51247
H      3.65815   23.89436    2.91627
H      6.52415   19.18223    4.36350
C      4.40714   20.44115    2.59340
H      3.67328   20.01271    1.89179
H      5.78769   19.77145    6.62419
H      4.28080   20.05355    6.04991
H      8.11672   21.82197    3.45290
H      5.32678   24.19659    4.63820
H      4.03401   23.37439    5.20308
C      2.53661   21.53957    3.99693
H      1.88376   22.42403    4.07159
H      1.89189   20.68990    3.72871
H      2.93349   21.33671    5.00555
C      5.37852   17.62937    5.26890
H      5.61666   16.88788    4.49201
H      6.08332   17.47967    6.10203
H      4.35585   17.43088    5.62832
