23

O      0.45619   -0.12412   -2.64189
O     -0.52170   -2.07818   -0.23040
O      0.08708    2.13902   -0.31843
P      2.01688   -0.27257    0.57885
N     -2.55274    0.37741   -0.21209
O     -0.64925    0.13074    1.73012
H     -0.44904   -2.37325    0.69366
H      0.25540    2.43204    0.59357
H      2.87300    0.67667   -0.03026
H      2.53119   -1.50187    0.09833
H     -2.90546    1.26626    0.15611
H     -2.78389    0.39238   -1.21053
H      0.00201    0.06919    2.44469
H     -1.49736    0.26955    2.17863
Fe    -0.41911    0.06494    0.00893
H      2.53221   -0.27432    1.90337
H     -3.14566   -0.35675    0.18736
N      1.16517    2.69351   -1.07327
H      0.81768    3.60816   -1.39149
H      1.18033    2.09519   -1.90674
N      0.34449   -2.95293   -0.95283
H      0.52376   -2.42326   -1.81327
H     -0.25295   -3.74360   -1.22961
