36

O      7.27177   22.37734    6.31888
Fe     6.53714   21.99597    5.53294
N      5.76381   20.29252    6.30801
C      5.97671   19.29236    5.23205
C      4.99176   19.49308    4.08537
C      4.12117   22.01044    3.49120
C      4.84988   23.33674    3.70758
N      5.32239   23.56064    5.08651
C      6.11621   20.92069    2.20862
C      7.51488   20.91962    2.76372
O      7.67308   21.85444    3.86672
H      5.16990   18.62703    3.42839
H      3.59631   22.22887    2.54571
H      3.98630   19.31202    4.49851
H      5.95478   21.83395    1.61424
H      6.13656   20.10567    1.46472
H      8.22607   21.22637    1.97953
H      7.81728   19.92048    3.11969
H      5.71851   23.43685    3.04106
H      4.15224   24.15086    3.44486
H      7.01824   19.43873    4.89209
C      4.90123   20.69765    3.12199
H      4.16737   20.26921    2.42038
H      6.28178   20.02795    7.15278
H      4.77489   20.31005    6.57850
H      8.61081   22.07847    3.98149
H      5.82087   24.45309    5.16679
H      4.52810   23.63089    5.73167
C      3.03070   21.79607    4.52552
H      2.37785   22.68053    4.60018
H      2.38598   20.94640    4.25730
H      3.42758   21.59321    5.53414
C      5.87261   17.88587    5.79749
H      6.11075   17.14438    5.02060
H      6.57741   17.73617    6.63062
H      4.84994   17.68738    6.15691
