52

O      7.64276   23.31142    6.22783
Fe     6.10653   21.94688    4.74256
N      5.75885   20.21699    5.86322
C      5.50300   19.04290    4.99647
C      4.43225   19.31950    3.95647
P      4.84237   20.93813    3.25894
C      3.44865   22.02007    2.86837
C      4.02533   23.41348    3.03030
N      4.77006   23.57816    4.30250
C      5.87893   20.65522    1.73570
C      7.29359   20.47910    2.27659
N      7.64967   21.46140    3.31077
C      8.89158   21.05981    3.98168
C      7.82519   22.79361    2.72280
H      4.41039   18.55917    3.15924
H      3.07718   21.84713    1.84489
H      2.61590   21.81724    3.55903
H      3.42143   19.35835    4.39060
H      5.80494   21.60575    1.18182
H      8.02318   20.52344    1.44771
H      7.37792   19.47721    2.72338
H      8.62212   22.78045    1.95815
H      6.89110   23.12027    2.24902
H      8.10032   23.49878    3.51778
H      9.73468   21.07444    3.26962
H      9.09029   21.75288    4.80887
H      8.78554   20.03955    4.36985
H      4.73383   23.62183    2.21460
H      3.23462   24.18233    2.96654
C      3.84504   23.57923    5.44248
H      4.41880   23.68406    6.37159
H      3.13941   24.42470    5.36451
H      3.27053   22.64728    5.47049
C      5.48359   24.86536    4.27843
H      6.07507   24.96734    5.19510
H      6.15709   24.90553    3.41563
H      4.75860   25.69333    4.20162
H      5.21502   18.19882    5.64685
H      6.45511   18.77895    4.51691
C      4.54163   20.47438    6.73272
H      3.73767   20.75987    6.04065
H      4.81243   21.36160    7.32453
C      6.89858   19.92221    6.74438
H      6.67506   19.02855    7.34858
H      7.79566   19.73418    6.14651
H      7.08547   20.78039    7.39932
N      5.36921   19.59585    0.94480
H      5.28446   19.80544   -0.04518
H      5.84390   18.70666    1.07129
N      4.18978   19.35870    7.50705
H      3.26528   18.97574    7.34919
H      4.39966   19.41300    8.49737
