52

O      7.32450   23.02873    5.92013
Fe     6.42479   22.22957    5.05026
N      6.07711   20.49968    6.17092
C      5.82126   19.32559    5.30417
C      4.75051   19.60219    4.26417
P      5.16063   21.22082    3.56664
C      3.76691   22.30276    3.17607
C      4.34359   23.69617    3.33800
N      5.08832   23.86085    4.61020
C      6.19719   20.93791    2.04340
C      7.61185   20.76179    2.58429
N      7.96793   21.74409    3.61847
C      9.20984   21.34250    4.28938
C      8.14345   23.07630    3.03050
H      4.72865   18.84186    3.46694
H      3.39544   22.12982    2.15259
H      2.93416   22.09993    3.86673
H      3.73969   19.64104    4.69830
H      6.12320   21.88844    1.48952
H      8.34144   20.80613    1.75541
H      7.69618   19.75990    3.03108
H      8.94038   23.06314    2.26585
H      7.20936   23.40296    2.55672
H      8.41858   23.78147    3.82548
H     10.05294   21.35713    3.57732
H      9.40855   22.03557    5.11657
H      9.10380   20.32224    4.67755
H      5.05209   23.90452    2.52230
H      3.55288   24.46502    3.27424
C      4.16330   23.86192    5.75018
H      4.73706   23.96675    6.67929
H      3.45767   24.70739    5.67221
H      3.58879   22.92997    5.77819
C      5.80185   25.14805    4.58613
H      6.39333   25.25003    5.50280
H      6.47535   25.18822    3.72333
H      5.07686   25.97602    4.50932
H      5.53328   18.48151    5.95455
H      6.77337   19.06164    4.82461
C      4.85989   20.75707    7.04042
H      4.05593   21.04256    6.34835
H      5.13069   21.64429    7.63223
C      7.21684   20.20490    7.05208
H      6.99332   19.31124    7.65628
H      8.11392   20.01687    6.45421
H      7.40373   21.06308    7.70702
N      5.68747   19.87854    1.25250
H      5.60272   20.08813    0.26252
H      6.16216   18.98935    1.37899
N      4.50804   19.64139    7.81475
H      3.58354   19.25843    7.65689
H      4.71792   19.69569    8.80507
