23

O      0.36928   -0.57319   -2.34829
O     -0.65871   -2.13648    0.38253
O      0.18933    2.08207   -0.28257
P      2.30972   -0.55754    0.05634
N     -2.34887    0.34730   -0.31174
O     -0.47882    0.27163    1.69224
H     -1.10190   -2.54637    1.13957
H     -0.53607   -2.82578   -0.28731
H      3.16724    0.33118   -0.64201
H      2.77127   -1.79303   -0.46383
H     -2.53366    1.08172   -1.00031
H     -2.86232   -0.47540   -0.64153
H     -0.05123   -0.17854    2.43422
H     -0.23636    1.24145    1.77340
Fe    -0.25051   -0.09941   -0.06367
H      2.94239   -0.56589    1.32942
H     -2.79955    0.63530    0.56157
N      0.24389    2.71179    0.98275
H      1.19077    3.09130    1.11489
H     -0.41483    3.50186    0.97497
N      0.49817    2.81617   -1.41346
H     -0.13512    3.62353   -1.46170
H      1.46051    3.16516   -1.32741
