53

O      5.82540   23.23752    7.51622
Fe     6.44821   22.34502    5.20398
P      6.11075   20.19284    5.73195
C      5.87525   18.90937    4.45684
C      4.80810   19.08523    3.37989
C      4.30113   21.55672    3.33864
C      4.53485   22.95794    2.77628
P      5.16691   23.90158    4.19866
C      5.99623   20.55064    1.63216
C      7.37941   20.63356    2.24928
P      7.75290   21.98300    3.41289
C      9.35984   21.50214    4.11159
C      8.18569   23.38862    2.34957
H      4.90391   18.22112    2.70286
H      5.06262   21.52562    4.24187
H      3.82665   18.95134    3.86069
H      5.83237   21.41669    0.97169
H      6.02154   19.69096    0.94209
H      8.12888   20.74518    1.44636
H      7.64608   19.70591    2.76965
H      9.01810   23.09746    1.68913
H      7.33459   23.69370    1.72633
H      8.50475   24.23768    2.97154
H     10.09061   21.32521    3.30556
H      9.73782   22.30646    4.76214
H      9.24278   20.58621    4.70752
H      5.32597   22.94667    2.01625
H      3.63485   23.39265    2.31139
C      3.75843   24.20399    5.28425
H      4.12221   24.76311    6.15899
H      2.98594   24.78785    4.75836
H      3.34624   23.24870    5.63471
C      5.70539   25.53892    3.67149
H      6.10966   26.07190    4.54670
H      6.47549   25.48531    2.89321
H      4.83385   26.09555    3.28927
H      5.61504   18.01068    5.04520
H      6.86715   18.69070    4.03789
C      4.44432   20.25201    6.63097
H      3.75104   20.72223    5.91203
H      4.16382   19.18694    6.72226
C      7.22958   19.44105    6.93537
H      6.84238   18.45288    7.23358
H      8.23983   19.32327    6.51820
H      7.28363   20.09824    7.81346
C      4.77082   20.35008    2.51583
H      3.94551   20.18619    1.79839
N      4.42922   20.89632    7.87125
H      4.67027   21.88762    7.82792
H      4.90612   20.41520    8.62790
N      3.00494   21.40013    3.85345
H      2.36782   22.17855    3.73554
H      2.55214   20.50752    3.69228
