22

O      0.39736   -0.05415   -1.88881
O     -0.13176   -2.17943   -0.07121
O      0.10773    2.16127   -0.26153
P      2.42122   -0.31730   -0.08009
O     -1.99057   -0.07469   -0.86295
O     -0.64106    0.01076    1.68341
H     -0.22828   -2.85443   -0.76923
H      0.53141    2.57598    0.50515
H      0.36283    2.70154   -1.02613
H      3.33133    0.72877   -0.37977
H      3.06360   -1.41182   -0.70994
H     -2.56638    0.31072   -1.53808
H     -2.27161    0.25598    0.09210
H     -0.79213   -1.01458    1.66698
Fe     0.04966    0.02174   -0.82558
H      2.72967   -0.56046    1.28381
N     -0.93253   -2.47185    1.03290
H     -1.88513   -2.68965    0.71559
H     -0.54582   -3.29455    1.51254
N     -1.94509    0.54948    1.82075
H     -2.37163    0.13016    2.65796
H     -1.79979    1.53586    2.06131
