17

O      0.00000    0.00000    2.20909
Fe     0.00000    0.00000   -0.60909
O     -0.02532   -2.04942   -0.65086
O      0.01885    2.04941   -0.65458
O     -2.09136   -0.00340   -0.79939
O      2.09172    0.00000   -0.79534
O      0.00000    0.00000   -2.65909
H      0.26040   -2.63210   -1.37648
H      0.04961   -2.57039    0.16928
H     -0.25655    2.63228   -1.38395
H     -0.05040    2.57471    0.16323
H     -2.58023    0.46315   -0.09512
H     -2.52460   -0.87680   -0.83716
H      2.52747    0.87055   -0.85989
H      2.57839   -0.44571   -0.07617
H     -0.77522    0.08407   -3.23971
H      0.77001   -0.10212   -3.24367
