37

O      1.05087    0.45082    3.58865
N      0.03661   -2.05948    0.46643
C      0.94144   -2.00777   -0.69685
H      0.38637   -1.56382   -1.53799
H      1.23500   -3.02825   -1.00156
C     -1.32423   -2.51740    0.12457
H     -1.79875   -2.78314    1.08059
H     -1.29045   -3.42439   -0.50473
C      2.15171   -1.16598   -0.36628
H      2.74486   -1.64454    0.42746
H      2.81281   -1.07624   -1.24425
C     -2.11572   -1.43363   -0.55647
H     -3.16540   -1.75249   -0.67150
H     -1.72245   -1.17455   -1.55594
C      1.58341    1.20803   -0.88437
H      2.56780    1.52852   -1.26858
H      1.02384    0.80521   -1.74234
C     -2.60776    0.93646   -0.17887
H     -3.08997    1.41726    0.68422
H     -3.36520    0.73739   -0.95204
C     -1.47817    1.78158   -0.71444
H     -1.02977    1.31413   -1.60306
H     -1.84379    2.77981   -1.01971
C      0.86168    2.37839   -0.25508
H      1.45120    2.77458    0.58635
H      0.71175    3.20023   -0.97629
N     -0.42365    1.91589    0.30419
Fe    -0.15718   -0.03204    1.15724
N      1.72045    0.15071    0.11780
O     -2.05016   -0.29357    0.30327
H      2.34909    0.47006    0.85765
N      0.50249   -2.79173    1.57228
H      1.33205   -2.34309    1.95729
H      0.74686   -3.74830    1.29397
N     -0.92975    2.61449    1.40900
H     -1.14967    3.58610    1.16307
H     -0.23289    2.60488    2.15447
