19

O      0.81038   -0.21907   -2.41657
O     -0.17764   -2.11959    0.37490
O      0.38527    2.06836    0.27753
P      2.59268   -0.36680    0.55507
P     -2.22553    0.28254   -0.92454
O     -0.19929    0.04417    1.85116
H     -0.75202   -2.53076    1.03827
H     -0.28035   -2.64243   -0.43574
H      0.53110    2.51758    1.12406
H      1.02331    2.45614   -0.34387
H      3.14315   -1.43384   -0.20436
H     -2.38730    1.24743   -1.95659
H      0.37968   -0.22737    2.57891
H     -1.02912    0.31306    2.27257
Fe     0.11684   -0.03288    0.12010
H      3.19017   -0.63699    1.82039
H     -3.31886    0.66526   -0.09332
Br    -2.95938   -1.53617   -1.85346
Br     3.70399    1.36054   -0.12907
