16

H 0.000000 0.000000 0.000000
H 0.000000 0.000000 1.036364
H 0.000000 0.000000 2.072727
H 0.000000 0.000000 3.109091
H 0.000000 0.000000 4.145455
H 0.000000 0.000000 5.181818
H 0.000000 0.000000 6.218182
H 0.000000 0.000000 7.254545
H 0.000000 0.000000 8.290909
H 0.000000 0.000000 9.327273
H 0.000000 0.000000 10.363636
H 0.000000 0.000000 11.400000
H 0.000000 0.000000 12.436364
H 0.000000 0.000000 13.472727
H 0.000000 0.000000 14.509091
H 0.000000 0.000000 15.545455
