36

O      7.61633   22.55621    6.68750
Fe     6.19258   21.81710    5.16432
N      5.41925   20.11365    5.93939
C      5.63215   19.11349    4.86343
C      4.64720   19.31421    3.71675
C      3.77661   21.83157    3.12258
C      4.50532   23.15787    3.33896
N      4.97783   23.38177    4.71789
C      5.77165   20.74182    1.84000
C      7.17032   20.74075    2.39510
O      7.32852   21.67557    3.49810
H      4.82534   18.44816    3.05977
H      3.25175   22.05000    2.17709
H      3.64174   19.13315    4.12989
H      5.61022   21.65508    1.24562
H      5.79200   19.92680    1.09610
H      7.88151   21.04750    1.61091
H      7.47272   19.74161    2.75107
H      5.37395   23.25798    2.67244
H      3.80768   23.97199    3.07624
H      6.67368   19.25986    4.52347
C      4.55667   20.51878    2.75337
H      3.82281   20.09034    2.05176
H      5.93722   19.84908    6.78416
H      4.43033   20.13118    6.20988
H      8.26625   21.89960    3.61287
H      5.47631   24.27422    4.79817
H      4.18354   23.45202    5.36305
C      2.68614   21.61720    4.15690
H      2.03329   22.50166    4.23156
H      2.04142   20.76753    3.88868
H      3.08302   21.41434    5.16552
C      5.52805   17.70700    5.42887
H      5.76619   16.96551    4.65198
H      6.23285   17.55730    6.26200
H      4.50538   17.50851    5.78829
