23

O      0.32347   -0.09546   -2.23996
O     -0.52170   -2.07818   -0.23040
O      0.08708    2.13902   -0.31843
P      2.14960   -0.30123    0.17692
N     -2.42002    0.34875   -0.61402
O     -0.64925    0.13074    1.73012
H     -0.44904   -2.37325    0.69366
H      0.25540    2.43204    0.59357
H      3.00572    0.64801   -0.43219
H      2.66391   -1.53053   -0.30360
H     -2.77274    1.23760   -0.24582
H     -2.65117    0.36372   -1.61246
H      0.00201    0.06919    2.44469
H     -1.49736    0.26955    2.17863
Fe    -0.28639    0.03628   -0.39300
H      2.66493   -0.30298    1.50144
H     -3.01294   -0.38541   -0.21457
N      1.16517    2.69351   -1.07327
H      0.81768    3.60816   -1.39149
H      1.18033    2.09519   -1.90674
N      0.34449   -2.95293   -0.95283
H      0.52376   -2.42326   -1.81327
H     -0.25295   -3.74360   -1.22961
