19

O      0.81304   -0.21979   -2.42629
O     -0.18030   -2.11887    0.38462
O      0.38261    2.06908    0.28725
P      2.59002   -0.36608    0.56479
P     -2.22553    0.28254   -0.92454
O     -0.19929    0.04417    1.85116
H     -0.75468   -2.53004    1.04799
H     -0.28301   -2.64171   -0.42602
H      0.52844    2.51830    1.13378
H      1.02065    2.45686   -0.33415
H      3.14049   -1.43312   -0.19464
H     -2.38730    1.24743   -1.95659
H      0.37968   -0.22737    2.57891
H     -1.02912    0.31306    2.27257
Fe     0.11418   -0.03216    0.12982
H      3.18751   -0.63627    1.83011
H     -3.31886    0.66526   -0.09332
Br    -2.95938   -1.53617   -1.85346
Br     3.70133    1.36126   -0.11935
