37

O      1.05529    0.45259    3.59755
N      0.03219   -2.06125    0.45753
C      0.93702   -2.00954   -0.70575
H      0.38195   -1.56559   -1.54689
H      1.23058   -3.03002   -1.01046
C     -1.32865   -2.51917    0.11567
H     -1.80317   -2.78491    1.07169
H     -1.29487   -3.42616   -0.51363
C      2.14729   -1.16775   -0.37518
H      2.74044   -1.64631    0.41856
H      2.80839   -1.07801   -1.25315
C     -2.12014   -1.43540   -0.56537
H     -3.16982   -1.75426   -0.68040
H     -1.72687   -1.17632   -1.56484
C      1.57899    1.20626   -0.89327
H      2.56338    1.52675   -1.27748
H      1.01942    0.80344   -1.75124
C     -2.61218    0.93469   -0.18777
H     -3.09439    1.41549    0.67532
H     -3.36962    0.73562   -0.96094
C     -1.48259    1.77981   -0.72334
H     -1.03419    1.31236   -1.61196
H     -1.84821    2.77804   -1.02861
C      0.85726    2.37662   -0.26398
H      1.44678    2.77281    0.57745
H      0.70733    3.19846   -0.98519
N     -0.42807    1.91412    0.29529
Fe    -0.16160   -0.03381    1.14834
N      1.71603    0.14894    0.10890
O     -2.05458   -0.29534    0.29437
H      2.34467    0.46829    0.84875
N      0.49807   -2.79350    1.56338
H      1.32763   -2.34486    1.94839
H      0.74244   -3.75007    1.28507
N     -0.93417    2.61272    1.40010
H     -1.15409    3.58433    1.15417
H     -0.23731    2.60311    2.14557
