53

O      5.93864   23.07524    7.09581
Fe     6.33497   22.50730    5.62439
P      5.99751   20.35512    6.15236
C      5.76201   19.07165    4.87725
C      4.69486   19.24751    3.80030
C      4.18789   21.71900    3.75905
C      4.42161   23.12022    3.19669
P      5.05367   24.06386    4.61907
C      5.88299   20.71292    2.05257
C      7.26617   20.79584    2.66969
P      7.63966   22.14528    3.83330
C      9.24660   21.66442    4.53200
C      8.07245   23.55090    2.76998
H      4.79067   18.38340    3.12327
H      4.94938   21.68790    4.66228
H      3.71341   19.11362    4.28110
H      5.71913   21.57897    1.39210
H      5.90830   19.85324    1.36250
H      8.01564   20.90746    1.86677
H      7.53284   19.86819    3.19006
H      8.90486   23.25974    2.10954
H      7.22135   23.85598    2.14674
H      8.39151   24.39996    3.39195
H      9.97737   21.48749    3.72597
H      9.62458   22.46874    5.18255
H      9.12954   20.74849    5.12793
H      5.21273   23.10895    2.43666
H      3.52161   23.55493    2.73180
C      3.64519   24.36627    5.70466
H      4.00897   24.92539    6.57940
H      2.87270   24.95013    5.17877
H      3.23300   23.41098    6.05512
C      5.59215   25.70120    4.09190
H      5.99642   26.23418    4.96711
H      6.36225   25.64759    3.31362
H      4.72061   26.25783    3.70968
H      5.50180   18.17296    5.46561
H      6.75391   18.85298    4.45830
C      4.33108   20.41429    7.05138
H      3.63780   20.88451    6.33244
H      4.05058   19.34922    7.14267
C      7.11634   19.60333    7.35578
H      6.72914   18.61516    7.65399
H      8.12659   19.48555    6.93861
H      7.17039   20.26052    8.23387
C      4.65758   20.51236    2.93624
H      3.83227   20.34847    2.21880
N      4.31598   21.05860    8.29166
H      4.55703   22.04990    8.24833
H      4.79288   20.57748    9.04831
N      2.89170   21.56241    4.27386
H      2.25458   22.34083    4.15595
H      2.43890   20.66980    4.11269
