23

O      0.38983   -0.10979   -2.44092
O     -0.52170   -2.07818   -0.23040
O      0.08708    2.13902   -0.31843
P      2.08324   -0.28690    0.37788
N     -2.48638    0.36308   -0.41306
O     -0.64925    0.13074    1.73012
H     -0.44904   -2.37325    0.69366
H      0.25540    2.43204    0.59357
H      2.93936    0.66234   -0.23123
H      2.59755   -1.51620   -0.10264
H     -2.83910    1.25193   -0.04486
H     -2.71753    0.37805   -1.41150
H      0.00201    0.06919    2.44469
H     -1.49736    0.26955    2.17863
Fe    -0.35275    0.05061   -0.19204
H      2.59857   -0.28865    1.70240
H     -3.07930   -0.37108   -0.01361
N      1.16517    2.69351   -1.07327
H      0.81768    3.60816   -1.39149
H      1.18033    2.09519   -1.90674
N      0.34449   -2.95293   -0.95283
H      0.52376   -2.42326   -1.81327
H     -0.25295   -3.74360   -1.22961
