10

H 0.000000 0.000000 0.000000
H 0.000000 0.000000 2.903030
H 0.000000 0.000000 5.806061
H 0.000000 0.000000 8.709091
H 0.000000 0.000000 11.612121
H 0.000000 0.000000 14.515152
H 0.000000 0.000000 17.418182
H 0.000000 0.000000 20.321212
H 0.000000 0.000000 23.224242
H 0.000000 0.000000 26.127273
