45

O     -0.39216   -3.44825    0.10175
Fe    -0.16759   -1.86781    2.39969
N      1.94156   -1.99695    2.87338
N      0.34398    0.01819    1.59241
N     -2.20454   -1.53983    3.00931
O     -0.10222   -1.72328    4.57880
C      0.01516    0.09618    0.16135
C      1.80119    0.18333    1.78919
C      2.28952   -0.56928    3.00478
C      2.74595   -2.65251    1.83509
C     -0.39065    1.04207    2.37188
C     -1.89805    0.89268    2.41356
C     -2.43836   -0.13058    3.38573
C     -3.08823   -1.95628    1.90978
C      1.13136   -2.06861    5.18820
C      1.93693   -2.76081    4.11806
C     -1.31332   -2.10209    5.23466
C     -2.31054   -2.44776    4.14630
H     -2.90271   -3.01042    1.67115
H     -4.14092   -1.82469    2.20642
H     -2.87842   -1.35402    1.01897
H      0.29084    1.08674   -0.23857
H      0.55437   -0.69134   -0.37841
H     -1.05777   -0.06401    0.00894
H      2.05051    1.25313    1.88926
H      2.30824   -0.17015    0.88310
H      2.59188   -2.15461    0.87257
H      3.81520   -2.62079    2.10357
H      2.42235   -3.69413    1.73213
H      1.80876   -0.16340    3.90318
H      3.37885   -0.43572    3.12452
H      2.94978   -3.03460    4.46183
H     -1.15285   -2.99227    5.86116
H     -1.66200   -1.27639    5.87518
H     -2.12186   -3.46391    3.76502
H     -1.98054    0.03816    4.36873
H     -3.52512    0.00414    3.51556
H     -2.29236    1.86512    2.75013
H     -2.32039    0.76340    1.40673
H      0.00889    1.02918    3.39811
H     -0.13354    2.02608    1.93954
H      1.63113   -1.16097    5.56760
H      0.98522   -2.74829    6.04083
Br     0.99993   -4.43867    3.75347
Br    -4.06141   -2.50882    4.95344
