19

O      0.80241   -0.21693   -2.38742
O     -0.16967   -2.12173    0.34575
O      0.39324    2.06622    0.24838
P      2.60065   -0.36894    0.52592
P     -2.22553    0.28254   -0.92454
O     -0.19929    0.04417    1.85116
H     -0.74405   -2.53290    1.00912
H     -0.27238   -2.64457   -0.46489
H      0.53907    2.51544    1.09491
H      1.03128    2.45400   -0.37302
H      3.15112   -1.43598   -0.23351
H     -2.38730    1.24743   -1.95659
H      0.37968   -0.22737    2.57891
H     -1.02912    0.31306    2.27257
Fe     0.12481   -0.03502    0.09095
H      3.19814   -0.63913    1.79124
H     -3.31886    0.66526   -0.09332
Br    -2.95938   -1.53617   -1.85346
Br     3.71196    1.35840   -0.15822
