22

O      0.66106   -0.91687   -2.35336
N      2.79878   -0.75498   -0.41972
H      3.21989   -0.62371   -1.34293
H      3.07628   -1.69324   -0.11662
Fe     0.64766   -0.47874   -0.66176
H      3.26331   -0.09277    0.20717
P      0.74366    1.78869   -1.05533
H      0.11764    2.21414   -2.25691
H      0.11741    2.64142   -0.10821
P     -0.57215   -2.42814   -0.41806
H     -1.46788   -2.70572   -1.48003
H      0.29495   -3.55112   -0.47400
H     -1.34795   -2.73650    0.73004
P     -1.98622    0.47071   -0.94972
H     -2.37131    0.04025   -2.24560
H     -2.94231   -0.23275   -0.16537
H     -2.60801    1.75281   -0.92983
P      0.54993   -0.08948    1.59366
H      0.89225   -1.17400    2.45036
H     -0.72594    0.23711    2.13055
Br     1.82067    1.49146    2.36059
Br     2.72954    2.64946   -1.20868
