29

O     12.28714    7.27283   12.78035
Fe    13.00502    7.43493   12.04495
N     14.47343    7.69852   10.31999
N     11.86654    8.21680   10.51932
O     14.55664    8.52724   12.89359
N     13.57247    5.50473   11.61477
C     13.95678    8.81680    9.50105
H     14.30523    8.71487    8.45535
C     12.45959    8.76837    9.52856
C     15.76803    7.92571   10.94844
H     16.23344    6.94902   11.17651
H     16.49137    8.44658   10.29849
C     15.64110    8.59076   12.29710
C     14.43758    6.43227    9.58551
H     13.64774    6.46542    8.81172
H     15.37357    6.23643    9.02913
C     14.09467    5.28363   10.46770
H     11.90409    9.27856    8.72354
H     14.26894    4.26172   10.08825
H     13.31378    4.67950   12.16538
H     10.84279    8.27041   10.52816
C     14.35108   10.20570    9.99081
H     14.01905   10.38064   11.02377
H     15.43450   10.36624    9.90590
H     13.87326   10.96545    9.35330
C     16.81430    9.25598   12.88341
H     16.69505    9.39776   13.96612
H     17.74607    8.71837   12.64259
H     16.90559   10.25159   12.40665
