53

O      5.96079   23.04350    7.01356
Fe     6.31282   22.53904    5.70664
P      5.97536   20.38686    6.23461
C      5.73986   19.10339    4.95950
C      4.67271   19.27925    3.88255
C      4.16574   21.75074    3.84130
C      4.39946   23.15196    3.27894
P      5.03152   24.09560    4.70132
C      5.86084   20.74466    2.13482
C      7.24402   20.82758    2.75194
P      7.61751   22.17702    3.91555
C      9.22445   21.69616    4.61425
C      8.05030   23.58264    2.85223
H      4.76852   18.41514    3.20552
H      4.92723   21.71964    4.74453
H      3.69126   19.14536    4.36335
H      5.69698   21.61071    1.47435
H      5.88615   19.88498    1.44475
H      7.99349   20.93920    1.94902
H      7.51069   19.89993    3.27231
H      8.88271   23.29148    2.19179
H      7.19920   23.88772    2.22899
H      8.36936   24.43170    3.47420
H      9.95522   21.51923    3.80822
H      9.60243   22.50048    5.26480
H      9.10739   20.78023    5.21018
H      5.19058   23.14069    2.51891
H      3.49946   23.58667    2.81405
C      3.62304   24.39801    5.78691
H      3.98682   24.95713    6.66165
H      2.85055   24.98187    5.26102
H      3.21085   23.44272    6.13737
C      5.57000   25.73294    4.17415
H      5.97427   26.26592    5.04936
H      6.34010   25.67933    3.39587
H      4.69846   26.28957    3.79193
H      5.47965   18.20470    5.54786
H      6.73176   18.88472    4.54055
C      4.30893   20.44603    7.13363
H      3.61565   20.91625    6.41469
H      4.02843   19.38096    7.22492
C      7.09419   19.63507    7.43803
H      6.70699   18.64690    7.73624
H      8.10444   19.51729    7.02086
H      7.14824   20.29226    8.31612
C      4.63543   20.54410    3.01849
H      3.81012   20.38021    2.30105
N      4.29383   21.09034    8.37391
H      4.53488   22.08164    8.33058
H      4.77073   20.60922    9.13056
N      2.86955   21.59415    4.35611
H      2.23243   22.37257    4.23820
H      2.41675   20.70154    4.19494
