22

O      0.63449   -0.30111   -2.76863
O     -0.66709   -2.13712   -0.38183
O     -0.42408    1.91654    0.48560
P      1.98188   -0.51859    0.55655
O     -2.35339    0.11938   -0.75358
O     -0.76755   -0.13725    1.74867
H     -0.72924   -2.43266    0.54358
H     -0.90196    1.97966    1.39888
H     -0.02316    2.75024    0.20589
H      2.90479    0.36281   -0.05910
H      2.41848   -1.78305    0.09191
H     -2.71514    0.87660   -1.24004
H     -2.86977   -0.64808   -1.04523
H      0.06134   -0.08743    2.25404
Fe    -0.38166   -0.01822   -0.09005
H      2.47674   -0.53614    1.88890
N      0.19404   -3.08776   -1.01502
H     -0.43151   -3.85283   -1.30283
H      0.44633   -2.60182   -1.88377
N     -1.42320    1.10119    2.01296
H     -2.39675    0.90660    1.75224
H     -1.43649    1.24044    3.03273
