22

O      0.31004   -0.21078   -1.91337
O     -0.66709   -2.13712   -0.38183
O     -0.09963    1.82621   -0.36966
P      2.30633   -0.60892   -0.29871
O     -2.35339    0.11938   -0.75358
O     -0.76755   -0.13725    1.74867
H     -0.72924   -2.43266    0.54358
H     -0.57751    1.88933    0.54362
H      0.30129    2.65991   -0.64937
H      3.22924    0.27248   -0.91436
H      2.74293   -1.87338   -0.76335
H     -2.71514    0.87660   -1.24004
H     -2.86977   -0.64808   -1.04523
H      0.06134   -0.08743    2.25404
Fe    -0.05721   -0.10855   -0.94531
H      2.80119   -0.62647    1.03364
N      0.19404   -3.08776   -1.01502
H     -0.43151   -3.85283   -1.30283
H      0.44633   -2.60182   -1.88377
N     -1.42320    1.10119    2.01296
H     -2.39675    0.90660    1.75224
H     -1.43649    1.24044    3.03273
