19

O      0.68283   -0.18483   -1.95006
O     -0.05009   -2.15383   -0.09161
O      0.51282    2.03412   -0.18898
P      2.72023   -0.40104    0.08856
P     -2.22553    0.28254   -0.92454
O     -0.19929    0.04417    1.85116
H     -0.62447   -2.56500    0.57176
H     -0.15280   -2.67667   -0.90225
H      0.65865    2.48334    0.65755
H      1.15086    2.42190   -0.81038
H      3.27070   -1.46808   -0.67087
H     -2.38730    1.24743   -1.95659
H      0.37968   -0.22737    2.57891
H     -1.02912    0.31306    2.27257
Fe     0.24439   -0.06712   -0.34641
H      3.31772   -0.67123    1.35388
H     -3.31886    0.66526   -0.09332
Br    -2.95938   -1.53617   -1.85346
Br     3.83154    1.32630   -0.59558
