54

O      7.32111   22.85468    6.70576
Fe     6.06414   22.16152    4.91772
P      5.87484   20.13281    5.98886
C      5.14408   18.83628    4.91536
C      4.12440   19.51232    4.02030
P      4.94255   21.00465    3.36809
C      3.69233   22.15354    2.73258
C      4.23105   23.55319    2.94389
N      4.88463   23.80289    4.25230
C      6.04806   20.46791    2.00099
C      7.48221   20.43082    2.49825
P      7.81145   22.00156    3.38372
C      9.42093   21.86381    4.18680
C      8.08386   23.20223    2.05215
H      3.76294   18.86736    3.20254
H      3.49066   21.97395    1.66411
H      2.75939   21.96325    3.27716
H      3.24708   19.85184    4.59511
H      5.93197   21.19937    1.18465
H      5.70907   19.49402    1.61171
H      8.20274   20.28112    1.67689
H      7.63209   19.61375    3.22156
H      8.88930   22.82743    1.39934
H      7.17712   23.35310    1.45086
H      8.39878   24.16421    2.48273
H     10.19974   21.62485    3.44506
H      9.64421   22.82883    4.66675
H      9.39441   21.09569    4.96923
H      5.00106   23.74614    2.18320
H      3.43699   24.30366    2.78522
C      3.92831   24.03063    5.35466
H      4.53829   24.33285    6.21412
H      3.28428   24.89160    5.09858
C      5.71710   25.02526    4.05082
H      6.42605   24.77031    3.25373
H      5.04739   25.80342    3.63887
H      4.70733   18.03082    5.52830
H      5.96072   18.39115    4.32436
C      4.86523   20.14993    7.48743
H      3.81316   20.35290    7.24602
H      4.94347   19.16631    7.97802
H      5.24019   20.93004    8.16300
C      7.49157   19.53093    6.50872
H      7.36997   18.59795    7.08249
H      8.11955   19.33403    5.62974
H      7.96595   20.30279    7.13177
C      6.45801   25.57279    5.23993
H      5.78933   25.96623    6.01833
H      7.12607   24.82356    5.68354
H      7.06709   26.42136    4.89180
C      3.10538   22.82328    5.73021
H      2.71781   22.93786    6.75286
H      2.24384   22.65788    5.07097
H      3.74002   21.92021    5.71185
