33

O      6.77436   22.55202    6.67021
Fe     6.34637   21.87623    5.30088
N      6.10298   19.80622    5.84279
C      5.79505   18.92363    4.70950
C      4.63250   19.35888    3.83274
C      4.05149   21.90063    3.76207
C      4.54410   23.27625    3.33084
N      5.84732   23.54419    3.95201
C      5.97666   20.83978    2.19870
C      7.38369   20.80721    2.73794
N      7.68540   21.28966    3.91859
H      4.51929   18.54735    3.09550
H      2.97343   21.84635    3.53150
H      3.68698   19.32398    4.40236
H      5.90920   21.77047    1.60961
H      5.92170   20.04462    1.43866
H      4.58197   23.35763    2.23479
H      3.81512   24.03092    3.66607
H      5.58021   17.90396    5.07446
H      6.70865   18.84123    4.10392
C      4.69896   20.67758    3.04196
H      3.96540   20.52235    2.23435
H      6.97686   19.50406    6.28310
H      5.40174   19.70715    6.58184
H      8.68147   21.26145    4.14644
H      6.59647   23.61815    3.26408
H      5.84822   24.42858    4.46344
N      8.29885   20.31619    1.90068
H      9.29015   20.32655    2.12262
H      8.04389   19.96752    0.98308
N      4.23574   21.85149    5.21673
H      3.80199   22.65861    5.67368
H      3.78063   21.02992    5.61380
