22

O      0.66400   -1.01311   -2.72493
N      2.79878   -0.75498   -0.41972
H      3.21989   -0.62371   -1.34293
H      3.07628   -1.69324   -0.11662
Fe     0.64472   -0.38250   -0.29019
H      3.26331   -0.09277    0.20717
P      0.74072    1.88493   -0.68376
H      0.11470    2.31038   -1.88534
H      0.11447    2.73766    0.26336
P     -0.57509   -2.33190   -0.04649
H     -1.47082   -2.60948   -1.10846
H      0.29201   -3.45488   -0.10243
H     -1.35089   -2.64026    1.10161
P     -1.98622    0.47071   -0.94972
H     -2.37131    0.04025   -2.24560
H     -2.94231   -0.23275   -0.16537
H     -2.60801    1.75281   -0.92983
P      0.54699    0.00676    1.96523
H      0.88931   -1.07776    2.82193
H     -0.72888    0.33335    2.50212
Br     1.81773    1.58770    2.73216
Br     2.72660    2.74570   -0.83711
