18

H 0.000000 0.000000 0.000000
H 0.000000 0.000000 0.818182
H 0.000000 0.000000 1.636364
H 0.000000 0.000000 2.454545
H 0.000000 0.000000 3.272727
H 0.000000 0.000000 4.090909
H 0.000000 0.000000 4.909091
H 0.000000 0.000000 5.727273
H 0.000000 0.000000 6.545455
H 0.000000 0.000000 7.363636
H 0.000000 0.000000 8.181818
H 0.000000 0.000000 9.000000
H 0.000000 0.000000 9.818182
H 0.000000 0.000000 10.636364
H 0.000000 0.000000 11.454545
H 0.000000 0.000000 12.272727
H 0.000000 0.000000 13.090909
H 0.000000 0.000000 13.909091
