22

O      0.62602   -0.10406   -2.58805
O     -0.13176   -2.17943   -0.07121
O      0.10773    2.16127   -0.26153
P      2.19256   -0.26739    0.61915
O     -2.21923   -0.02478   -0.16371
O     -0.64106    0.01076    1.68341
H     -0.22828   -2.85443   -0.76923
H      0.53141    2.57598    0.50515
H      0.36283    2.70154   -1.02613
H      3.10267    0.77868    0.31947
H      2.83494   -1.36191   -0.01070
H     -2.79504    0.36063   -0.83884
H     -2.50027    0.30589    0.79134
H     -0.79213   -1.01458    1.66698
Fe    -0.17900    0.07165   -0.12634
H      2.50101   -0.51055    1.98305
N     -0.93253   -2.47185    1.03290
H     -1.88513   -2.68965    0.71559
H     -0.54582   -3.29455    1.51254
N     -1.94509    0.54948    1.82075
H     -2.37163    0.13016    2.65796
H     -1.79979    1.53586    2.06131
