18

O      0.83778   -0.10657   -2.69124
O     -0.42175   -2.06495    0.41172
O      0.31033    2.08648    0.45721
N      2.14713   -0.38082    0.75633
O     -1.87800    0.34074   -0.54394
O     -0.33312    0.05252    1.71435
H     -0.64521   -2.48461    1.26259
H      0.23108    2.54218    1.31510
H      2.74231    0.35505    0.36203
H      2.46509   -1.25036    0.31586
H     -2.16696    1.17628   -0.94383
H     -2.43112   -0.34195   -0.95570
H      0.09815   -0.02801    2.57767
H     -1.27174    0.21562    1.89506
Fe     0.12095   -0.01664    0.19965
H      2.39197   -0.45162    1.74787
Br     1.11985    3.28643   -0.70056
Br    -0.01889   -3.44386   -0.75996
