53

O      5.89679   23.13521    7.25118
Fe     6.37682   22.44733    5.46902
P      6.03936   20.29515    5.99699
C      5.80386   19.01168    4.72188
C      4.73671   19.18754    3.64493
C      4.22974   21.65903    3.60368
C      4.46346   23.06025    3.04132
P      5.09552   24.00389    4.46370
C      5.92484   20.65295    1.89720
C      7.30802   20.73587    2.51432
P      7.68151   22.08531    3.67793
C      9.28845   21.60445    4.37663
C      8.11430   23.49093    2.61461
H      4.83252   18.32343    2.96790
H      4.99123   21.62793    4.50691
H      3.75526   19.05365    4.12573
H      5.76098   21.51900    1.23673
H      5.95015   19.79327    1.20713
H      8.05749   20.84749    1.71140
H      7.57469   19.80822    3.03469
H      8.94671   23.19977    1.95417
H      7.26320   23.79601    1.99137
H      8.43336   24.33999    3.23658
H     10.01922   21.42752    3.57060
H      9.66643   22.40877    5.02718
H      9.17139   20.68852    4.97256
H      5.25458   23.04898    2.28129
H      3.56346   23.49496    2.57643
C      3.68704   24.30630    5.54929
H      4.05082   24.86542    6.42403
H      2.91455   24.89016    5.02340
H      3.27485   23.35101    5.89975
C      5.63400   25.64123    3.93653
H      6.03827   26.17421    4.81174
H      6.40410   25.58762    3.15825
H      4.76246   26.19786    3.55431
H      5.54365   18.11299    5.31024
H      6.79576   18.79301    4.30293
C      4.37293   20.35432    6.89601
H      3.67965   20.82454    6.17707
H      4.09243   19.28925    6.98730
C      7.15819   19.54336    7.20041
H      6.77099   18.55519    7.49862
H      8.16844   19.42558    6.78324
H      7.21224   20.20055    8.07850
C      4.69943   20.45239    2.78087
H      3.87412   20.28850    2.06343
N      4.35783   20.99863    8.13629
H      4.59888   21.98993    8.09296
H      4.83473   20.51751    8.89294
N      2.93355   21.50244    4.11849
H      2.29643   22.28086    4.00058
H      2.48075   20.60983    3.95732
