19

O      0.70143   -0.18982   -2.01809
O     -0.06869   -2.14884   -0.02358
O      0.49422    2.03911   -0.12095
P      2.70163   -0.39605    0.15659
P     -2.22553    0.28254   -0.92454
O     -0.19929    0.04417    1.85116
H     -0.64307   -2.56001    0.63979
H     -0.17140   -2.67168   -0.83422
H      0.64005    2.48833    0.72558
H      1.13226    2.42689   -0.74235
H      3.25210   -1.46309   -0.60284
H     -2.38730    1.24743   -1.95659
H      0.37968   -0.22737    2.57891
H     -1.02912    0.31306    2.27257
Fe     0.22579   -0.06213   -0.27838
H      3.29912   -0.66624    1.42191
H     -3.31886    0.66526   -0.09332
Br    -2.95938   -1.53617   -1.85346
Br     3.81294    1.33129   -0.52755
