37

O      0.71899    0.31816    2.92068
N      0.36849   -1.92682    1.13440
C      1.27332   -1.87511   -0.02888
H      0.71825   -1.43116   -0.87002
H      1.56688   -2.89559   -0.33359
C     -0.99235   -2.38474    0.79254
H     -1.46687   -2.65048    1.74856
H     -0.95857   -3.29173    0.16324
C      2.48359   -1.03332    0.30169
H      3.07674   -1.51188    1.09543
H      3.14469   -0.94358   -0.57628
C     -1.78384   -1.30097    0.11150
H     -2.83352   -1.61983   -0.00353
H     -1.39057   -1.04189   -0.88797
C      1.91529    1.34069   -0.21640
H      2.89968    1.66118   -0.60061
H      1.35572    0.93787   -1.07437
C     -2.27588    1.06912    0.48910
H     -2.75809    1.54992    1.35219
H     -3.03332    0.87005   -0.28407
C     -1.14629    1.91424   -0.04647
H     -0.69789    1.44679   -0.93509
H     -1.51191    2.91247   -0.35174
C      1.19356    2.51105    0.41289
H      1.78308    2.90724    1.25432
H      1.04363    3.33289   -0.30832
N     -0.09177    2.04855    0.97216
Fe     0.17470    0.10062    1.82521
N      2.05233    0.28337    0.78577
O     -1.71828   -0.16091    0.97124
H      2.68097    0.60272    1.52562
N      0.83437   -2.65907    2.24025
H      1.66393   -2.21043    2.62526
H      1.07874   -3.61564    1.96194
N     -0.59787    2.74715    2.07697
H     -0.81779    3.71876    1.83104
H      0.09899    2.73754    2.82244
