23

O      0.40415    0.01868   -2.45252
O     -0.34171   -2.14590   -0.36927
O      0.07797    2.13762   -0.25050
P      2.19270   -0.05603    0.53901
N     -2.36237    0.33526   -0.32272
O     -0.50235   -0.00774    1.78455
H     -0.29125   -2.72988    0.40104
H     -0.04963   -2.67424   -1.12796
H      0.21245    2.33993    0.69112
H      3.07727    0.02436   -0.56778
H      2.65267   -1.25187    1.14588
H     -2.78323    0.98960    0.34303
H     -2.54078    0.74384   -1.24549
H     -1.32007   -0.07150    2.31196
Fe    -0.22774   -0.02160   -0.16478
H      2.72926    0.93145    1.39430
H     -2.92817   -0.51848   -0.28548
N      0.63723   -0.17022    2.58810
H      0.63611    0.57358    3.29585
H      0.55295   -1.05986    3.09300
N      1.30087    2.56617   -0.86762
H      1.15845    3.56836   -1.05404
H      1.24400    2.10899   -1.78554
