52

O      7.36122   23.06134    5.95563
Fe     6.38807   22.19696    5.01476
N      6.04039   20.46707    6.13542
C      5.78454   19.29298    5.26867
C      4.71379   19.56958    4.22867
P      5.12391   21.18821    3.53114
C      3.73019   22.27015    3.14057
C      4.30687   23.66356    3.30250
N      5.05160   23.82824    4.57470
C      6.16047   20.90530    2.00790
C      7.57513   20.72918    2.54879
N      7.93121   21.71148    3.58297
C      9.17312   21.30989    4.25388
C      8.10673   23.04369    2.99500
H      4.69193   18.80925    3.43144
H      3.35872   22.09721    2.11709
H      2.89744   22.06732    3.83123
H      3.70297   19.60843    4.66280
H      6.08648   21.85583    1.45402
H      8.30472   20.77352    1.71991
H      7.65946   19.72729    2.99558
H      8.90366   23.03053    2.23035
H      7.17264   23.37035    2.52122
H      8.38186   23.74886    3.78998
H     10.01622   21.32452    3.54182
H      9.37183   22.00296    5.08107
H      9.06708   20.28963    4.64205
H      5.01537   23.87191    2.48680
H      3.51616   24.43241    3.23874
C      4.12658   23.82931    5.71468
H      4.70034   23.93414    6.64379
H      3.42095   24.67478    5.63671
H      3.55207   22.89736    5.74269
C      5.76513   25.11544    4.55063
H      6.35661   25.21742    5.46730
H      6.43863   25.15561    3.68783
H      5.04014   25.94341    4.47382
H      5.49656   18.44890    5.91905
H      6.73665   19.02903    4.78911
C      4.82317   20.72446    7.00492
H      4.01921   21.00995    6.31285
H      5.09397   21.61168    7.59673
C      7.18012   20.17229    7.01658
H      6.95660   19.27863    7.62078
H      8.07720   19.98426    6.41871
H      7.36701   21.03047    7.67152
N      5.65075   19.84593    1.21700
H      5.56600   20.05552    0.22702
H      6.12544   18.95674    1.34349
N      4.47132   19.60878    7.77925
H      3.54682   19.22582    7.62139
H      4.68120   19.66308    8.76957
