29

O     11.70169    7.14064   13.38010
Fe    13.59047    7.56712   11.44520
N     15.05888    7.83071    9.72024
N     12.45199    8.34899    9.91957
O     15.14209    8.65943   12.29384
N     14.15792    5.63692   11.01502
C     14.54223    8.94899    8.90130
H     14.89068    8.84706    7.85560
C     13.04504    8.90056    8.92881
C     16.35348    8.05790   10.34869
H     16.81889    7.08121   10.57676
H     17.07682    8.57877    9.69874
C     16.22655    8.72295   11.69735
C     15.02303    6.56446    8.98576
H     14.23319    6.59761    8.21197
H     15.95902    6.36862    8.42938
C     14.68012    5.41582    9.86795
H     12.48954    9.41075    8.12379
H     14.85439    4.39391    9.48850
H     13.89923    4.81169   11.56563
H     11.42824    8.40260    9.92841
C     14.93653   10.33789    9.39106
H     14.60450   10.51283   10.42402
H     16.01995   10.49843    9.30615
H     14.45871   11.09764    8.75355
C     17.39975    9.38817   12.28366
H     17.28050    9.52995   13.36637
H     18.33152    8.85056   12.04284
H     17.49104   10.38378   11.80690
