22

O      0.67614   -0.11500   -2.74131
O     -0.13176   -2.17943   -0.07121
O      0.10773    2.16127   -0.26153
P      2.14244   -0.25645    0.77241
O     -2.26935   -0.01384   -0.01045
O     -0.64106    0.01076    1.68341
H     -0.22828   -2.85443   -0.76923
H      0.53141    2.57598    0.50515
H      0.36283    2.70154   -1.02613
H      3.05255    0.78962    0.47273
H      2.78482   -1.35097    0.14256
H     -2.84516    0.37157   -0.68558
H     -2.55039    0.31683    0.94460
H     -0.79213   -1.01458    1.66698
Fe    -0.22912    0.08259    0.02692
H      2.45089   -0.49961    2.13631
N     -0.93253   -2.47185    1.03290
H     -1.88513   -2.68965    0.71559
H     -0.54582   -3.29455    1.51254
N     -1.94509    0.54948    1.82075
H     -2.37163    0.13016    2.65796
H     -1.79979    1.53586    2.06131
