36

O      7.84387   22.67434    6.93094
Fe     5.96504   21.69897    4.92088
N      5.19171   19.99552    5.69595
C      5.40461   18.99536    4.61999
C      4.41966   19.19608    3.47331
C      3.54907   21.71344    2.87914
C      4.27778   23.03974    3.09552
N      4.75029   23.26364    4.47445
C      5.54411   20.62369    1.59656
C      6.94278   20.62262    2.15166
O      7.10098   21.55744    3.25466
H      4.59780   18.33003    2.81633
H      3.02421   21.93187    1.93365
H      3.41420   19.01502    3.88645
H      5.38268   21.53695    1.00218
H      5.56446   19.80867    0.85266
H      7.65397   20.92937    1.36747
H      7.24518   19.62348    2.50763
H      5.14641   23.13985    2.42900
H      3.58014   23.85386    2.83280
H      6.44614   19.14173    4.28003
C      4.32913   20.40065    2.50993
H      3.59527   19.97221    1.80832
H      5.70968   19.73095    6.54072
H      4.20279   20.01305    5.96644
H      8.03871   21.78147    3.36943
H      5.24877   24.15609    4.55473
H      3.95600   23.33389    5.11961
C      2.45860   21.49907    3.91346
H      1.80575   22.38353    3.98812
H      1.81388   20.64940    3.64524
H      2.85548   21.29621    4.92208
C      5.30051   17.58887    5.18543
H      5.53865   16.84738    4.40854
H      6.00531   17.43917    6.01856
H      4.27784   17.39038    5.54485
