23

O      0.33962    0.01457   -2.21887
O     -0.34171   -2.14590   -0.36927
O      0.07797    2.13762   -0.25050
P      2.25723   -0.05192    0.30536
N     -2.29784    0.33937   -0.55637
O     -0.50235   -0.00774    1.78455
H     -0.29125   -2.72988    0.40104
H     -0.04963   -2.67424   -1.12796
H      0.21245    2.33993    0.69112
H      3.14180    0.02847   -0.80143
H      2.71720   -1.24776    0.91223
H     -2.71870    0.99371    0.10938
H     -2.47625    0.74795   -1.47914
H     -1.32007   -0.07150    2.31196
Fe    -0.16321   -0.01749   -0.39843
H      2.79379    0.93556    1.16065
H     -2.86364   -0.51437   -0.51913
N      0.63723   -0.17022    2.58810
H      0.63611    0.57358    3.29585
H      0.55295   -1.05986    3.09300
N      1.30087    2.56617   -0.86762
H      1.15845    3.56836   -1.05404
H      1.24400    2.10899   -1.78554
