18

H 0.000000 0.000000 0.000000
H 0.000000 0.000000 1.254545
H 0.000000 0.000000 2.509091
H 0.000000 0.000000 3.763636
H 0.000000 0.000000 5.018182
H 0.000000 0.000000 6.272727
H 0.000000 0.000000 7.527273
H 0.000000 0.000000 8.781818
H 0.000000 0.000000 10.036364
H 0.000000 0.000000 11.290909
H 0.000000 0.000000 12.545455
H 0.000000 0.000000 13.800000
H 0.000000 0.000000 15.054545
H 0.000000 0.000000 16.309091
H 0.000000 0.000000 17.563636
H 0.000000 0.000000 18.818182
H 0.000000 0.000000 20.072727
H 0.000000 0.000000 21.327273
