29

O     -2.51066    2.15115    1.86339
Fe    -2.37140    2.18985    0.12191
N     -3.62490    3.85516   -0.18928
O     -1.93534    1.69862   -2.01175
N     -0.28196    2.48258    0.19938
O     -3.63744    0.54134    0.06968
C     -4.87312    3.63299    0.55865
H     -5.54203    4.50201    0.43710
H     -5.37820    2.73688    0.17280
H     -4.64078    3.49442    1.62139
C     -2.87793    4.99790    0.35764
H     -1.94819    5.14533   -0.21113
H     -3.48112    5.91938    0.28087
H     -2.64395    4.80881    1.41371
C     -3.91117    4.04888   -1.61577
H     -4.45299    3.17542   -2.00730
H     -4.55216    4.93669   -1.75682
H     -2.97677    4.20922   -2.17162
H     -1.31125    1.00478   -2.27108
H     -2.51814    1.81556   -2.77573
H      0.12391    2.27539    1.11943
H     -3.87506    0.33611    0.98801
C      0.55086    2.97339   -0.63637
H      1.61103    3.14305   -0.38033
H      0.21109    3.23851   -1.64879
C     -3.81561   -0.61956   -0.75452
H     -3.07642   -1.39785   -0.49998
H     -4.83709   -1.01057   -0.61982
H     -3.68689   -0.30612   -1.79749
