19

O      0.70409   -0.19054   -2.02781
O     -0.07135   -2.14812   -0.01386
O      0.49156    2.03983   -0.11123
P      2.69897   -0.39533    0.16631
P     -2.22553    0.28254   -0.92454
O     -0.19929    0.04417    1.85116
H     -0.64573   -2.55929    0.64951
H     -0.17406   -2.67096   -0.82450
H      0.63739    2.48905    0.73530
H      1.12960    2.42761   -0.73263
H      3.24944   -1.46237   -0.59312
H     -2.38730    1.24743   -1.95659
H      0.37968   -0.22737    2.57891
H     -1.02912    0.31306    2.27257
Fe     0.22313   -0.06141   -0.26866
H      3.29646   -0.66552    1.43163
H     -3.31886    0.66526   -0.09332
Br    -2.95938   -1.53617   -1.85346
Br     3.81028    1.33201   -0.51783
