17

O      0.00000    0.00000    1.77475
Fe     0.00000    0.00000   -0.17475
O     -0.02532   -2.04942   -0.21652
O      0.01885    2.04941   -0.22023
O     -2.09136   -0.00340   -0.36504
O      2.09172    0.00000   -0.36099
O      0.00000    0.00000   -2.22475
H      0.26040   -2.63210   -0.94213
H      0.04961   -2.57039    0.60363
H     -0.25655    2.63228   -0.94961
H     -0.05040    2.57471    0.59757
H     -2.58023    0.46315    0.33922
H     -2.52460   -0.87680   -0.40282
H      2.52747    0.87055   -0.42555
H      2.57839   -0.44571    0.35817
H     -0.77522    0.08407   -2.80537
H      0.77001   -0.10212   -2.80933
