29

O     12.01532    7.21146   13.05881
Fe    13.27684    7.49630   11.76649
N     14.74525    7.75989   10.04153
N     12.13836    8.27817   10.24086
O     14.82846    8.58861   12.61513
N     13.84429    5.56610   11.33631
C     14.22860    8.87817    9.22259
H     14.57705    8.77624    8.17689
C     12.73141    8.82974    9.25010
C     16.03985    7.98708   10.66998
H     16.50526    7.01039   10.89805
H     16.76319    8.50795   10.02003
C     15.91292    8.65213   12.01864
C     14.70940    6.49364    9.30705
H     13.91956    6.52679    8.53326
H     15.64539    6.29780    8.75067
C     14.36649    5.34500   10.18924
H     12.17591    9.33993    8.44508
H     14.54076    4.32309    9.80979
H     13.58560    4.74087   11.88692
H     11.11461    8.33178   10.24970
C     14.62290   10.26707    9.71235
H     14.29087   10.44201   10.74531
H     15.70632   10.42761    9.62744
H     14.14508   11.02682    9.07484
C     17.08612    9.31735   12.60495
H     16.96687    9.45913   13.68766
H     18.01789    8.77974   12.36413
H     17.17741   10.31296   12.12819
