33

O      6.70076   22.43580    6.43472
Fe     6.41997   21.99245    5.53637
N      6.17658   19.92244    6.07828
C      5.86865   19.03985    4.94499
C      4.70610   19.47510    4.06823
C      4.12509   22.01685    3.99756
C      4.61770   23.39247    3.56633
N      5.92092   23.66041    4.18750
C      6.05026   20.95600    2.43419
C      7.45729   20.92343    2.97343
N      7.75900   21.40588    4.15408
H      4.59289   18.66357    3.33099
H      3.04703   21.96257    3.76699
H      3.76058   19.44020    4.63785
H      5.98280   21.88669    1.84510
H      5.99530   20.16084    1.67415
H      4.65557   23.47385    2.47028
H      3.88872   24.14714    3.90156
H      5.65381   18.02018    5.30995
H      6.78225   18.95745    4.33941
C      4.77256   20.79380    3.27745
H      4.03900   20.63857    2.46984
H      7.05046   19.62028    6.51859
H      5.47534   19.82337    6.81733
H      8.75507   21.37767    4.38193
H      6.67007   23.73437    3.49957
H      5.92182   24.54480    4.69893
N      8.37245   20.43241    2.13617
H      9.36375   20.44277    2.35811
H      8.11749   20.08374    1.21857
N      4.30934   21.96771    5.45222
H      3.87559   22.77483    5.90917
H      3.85423   21.14614    5.84929
