22

O      0.40274   -0.23659   -2.15773
O     -0.66709   -2.13712   -0.38183
O     -0.19233    1.85202   -0.12530
P      2.21363   -0.58311   -0.05435
O     -2.35339    0.11938   -0.75358
O     -0.76755   -0.13725    1.74867
H     -0.72924   -2.43266    0.54358
H     -0.67021    1.91514    0.78798
H      0.20859    2.68572   -0.40501
H      3.13654    0.29829   -0.67000
H      2.65023   -1.84757   -0.51899
H     -2.71514    0.87660   -1.24004
H     -2.86977   -0.64808   -1.04523
H      0.06134   -0.08743    2.25404
Fe    -0.14991   -0.08274   -0.70095
H      2.70849   -0.60066    1.27800
N      0.19404   -3.08776   -1.01502
H     -0.43151   -3.85283   -1.30283
H      0.44633   -2.60182   -1.88377
N     -1.42320    1.10119    2.01296
H     -2.39675    0.90660    1.75224
H     -1.43649    1.24044    3.03273
