23

O     12.10570    7.09081   12.89618
Fe    12.97409    7.34791   11.95933
N     14.51681    7.67465   10.27056
N     11.89464    8.32323   10.51986
O     14.40804    8.76284   12.73737
N     13.69179    5.48802   11.58698
C     14.00209    8.78792    9.46833
H     14.44985    9.74046    9.80978
H     14.30873    8.71415    8.40953
C     12.52745    8.92554    9.58349
C     15.76010    7.95486   10.95650
H     16.18609    7.00083   11.32459
C     15.50865    8.77242   12.20447
C     14.56353    6.40834    9.54234
H     13.77587    6.39192    8.76968
H     15.52291    6.27215    9.01240
C     14.28272    5.25805   10.46509
H     12.01334    9.58181    8.85975
H     16.35398    9.34390   12.64545
H     13.47686    4.67301   12.17012
H     10.88282    8.48535   10.56117
Br    17.13325    8.74989    9.86249
Br    14.75707    3.59102    9.87828
