22

O      0.66167   -0.93713   -2.43159
N      2.79878   -0.75498   -0.41972
H      3.21989   -0.62371   -1.34293
H      3.07628   -1.69324   -0.11662
Fe     0.64705   -0.45848   -0.58353
H      3.26331   -0.09277    0.20717
P      0.74305    1.80895   -0.97710
H      0.11703    2.23440   -2.17868
H      0.11680    2.66168   -0.02998
P     -0.57276   -2.40788   -0.33983
H     -1.46849   -2.68546   -1.40180
H      0.29434   -3.53086   -0.39577
H     -1.34856   -2.71624    0.80827
P     -1.98622    0.47071   -0.94972
H     -2.37131    0.04025   -2.24560
H     -2.94231   -0.23275   -0.16537
H     -2.60801    1.75281   -0.92983
P      0.54932   -0.06922    1.67189
H      0.89164   -1.15374    2.52859
H     -0.72655    0.25737    2.20878
Br     1.82006    1.51172    2.43882
Br     2.72893    2.66972   -1.13045
