29

O     -2.53641    2.14399    2.18552
Fe    -2.34565    2.19701   -0.20022
N     -3.59915    3.86232   -0.51141
O     -1.93534    1.69862   -2.01175
N     -0.25621    2.48974   -0.12275
O     -3.61169    0.54850   -0.25245
C     -4.84737    3.64015    0.23652
H     -5.51628    4.50917    0.11497
H     -5.35245    2.74404   -0.14933
H     -4.61503    3.50158    1.29926
C     -2.85218    5.00506    0.03551
H     -1.92244    5.15249   -0.53326
H     -3.45537    5.92654   -0.04126
H     -2.61820    4.81597    1.09158
C     -3.88542    4.05604   -1.93790
H     -4.42724    3.18258   -2.32943
H     -4.52641    4.94385   -2.07895
H     -2.95102    4.21638   -2.49375
H     -1.31125    1.00478   -2.27108
H     -2.51814    1.81556   -2.77573
H      0.14966    2.28255    0.79730
H     -3.84931    0.34327    0.66588
C      0.57661    2.98055   -0.95850
H      1.63678    3.15021   -0.70246
H      0.23684    3.24567   -1.97092
C     -3.78986   -0.61240   -1.07665
H     -3.05067   -1.39069   -0.82211
H     -4.81134   -1.00341   -0.94195
H     -3.66114   -0.29896   -2.11962
