22

O      0.52579   -0.08218   -2.28154
O     -0.13176   -2.17943   -0.07121
O      0.10773    2.16127   -0.26153
P      2.29279   -0.28927    0.31264
O     -2.11900   -0.04666   -0.47022
O     -0.64106    0.01076    1.68341
H     -0.22828   -2.85443   -0.76923
H      0.53141    2.57598    0.50515
H      0.36283    2.70154   -1.02613
H      3.20290    0.75680    0.01296
H      2.93517   -1.38379   -0.31721
H     -2.69481    0.33875   -1.14535
H     -2.40004    0.28401    0.48483
H     -0.79213   -1.01458    1.66698
Fe    -0.07877    0.04977   -0.43285
H      2.60124   -0.53243    1.67654
N     -0.93253   -2.47185    1.03290
H     -1.88513   -2.68965    0.71559
H     -0.54582   -3.29455    1.51254
N     -1.94509    0.54948    1.82075
H     -2.37163    0.13016    2.65796
H     -1.79979    1.53586    2.06131
