29

O     -2.52675    2.14667    2.06472
Fe    -2.35531    2.19433   -0.07942
N     -3.60881    3.85964   -0.39061
O     -1.93534    1.69862   -2.01175
N     -0.26587    2.48706   -0.00195
O     -3.62135    0.54582   -0.13165
C     -4.85703    3.63747    0.35732
H     -5.52594    4.50649    0.23577
H     -5.36211    2.74136   -0.02853
H     -4.62469    3.49890    1.42006
C     -2.86184    5.00238    0.15631
H     -1.93210    5.14981   -0.41246
H     -3.46503    5.92386    0.07954
H     -2.62786    4.81329    1.21238
C     -3.89508    4.05336   -1.81710
H     -4.43690    3.17990   -2.20863
H     -4.53607    4.94117   -1.95815
H     -2.96068    4.21370   -2.37295
H     -1.31125    1.00478   -2.27108
H     -2.51814    1.81556   -2.77573
H      0.14000    2.27987    0.91810
H     -3.85897    0.34059    0.78668
C      0.56695    2.97787   -0.83770
H      1.62712    3.14753   -0.58166
H      0.22718    3.24299   -1.85012
C     -3.79952   -0.61508   -0.95585
H     -3.06033   -1.39337   -0.70131
H     -4.82100   -1.00609   -0.82115
H     -3.67080   -0.30164   -1.99882
