23

O      0.33155    0.01405   -2.18967
O     -0.34171   -2.14590   -0.36927
O      0.07797    2.13762   -0.25050
P      2.26530   -0.05140    0.27616
N     -2.28977    0.33989   -0.58557
O     -0.50235   -0.00774    1.78455
H     -0.29125   -2.72988    0.40104
H     -0.04963   -2.67424   -1.12796
H      0.21245    2.33993    0.69112
H      3.14987    0.02899   -0.83063
H      2.72527   -1.24724    0.88303
H     -2.71063    0.99423    0.08018
H     -2.46818    0.74847   -1.50834
H     -1.32007   -0.07150    2.31196
Fe    -0.15514   -0.01697   -0.42763
H      2.80186    0.93608    1.13145
H     -2.85557   -0.51385   -0.54833
N      0.63723   -0.17022    2.58810
H      0.63611    0.57358    3.29585
H      0.55295   -1.05986    3.09300
N      1.30087    2.56617   -0.86762
H      1.15845    3.56836   -1.05404
H      1.24400    2.10899   -1.78554
