24

O     -0.25107    0.73221   -3.07445
N      2.26681    0.25966   -0.69109
H      2.53724    0.26513   -1.67910
H      2.66172   -0.58910   -0.27516
Fe     0.14213    0.26089   -0.59371
H      2.74209    1.04377   -0.23788
P      0.27629    3.03788   -0.55478
H      1.11728    3.57301   -1.56651
H     -0.87528    3.83357   -0.80306
H      0.79082    3.72520    0.58078
P     -0.20068   -2.18094   -1.32815
H     -0.75509   -2.53322   -2.58381
H      0.94590   -3.01171   -1.28481
H     -1.05685   -2.89094   -0.44426
P     -2.12522    0.67987   -0.19328
H     -2.73646    1.51670   -1.17278
H     -2.90725   -0.49830   -0.29568
P      0.16379   -0.25303    1.74736
H      0.19490    0.78188    2.71938
H     -0.92044   -1.02537    2.23611
N     -2.43473    1.16683    1.38918
H     -2.10143    2.09955    1.63152
H     -3.38730    1.03571    1.73863
Br     1.88019   -1.47667    2.28130
