36

O      7.40830   22.44821    6.46494
Fe     6.40061   21.92510    5.38688
N      5.62728   20.22165    6.16195
C      5.84018   19.22149    5.08599
C      4.85523   19.42221    3.93931
C      3.98464   21.93957    3.34514
C      4.71335   23.26587    3.56152
N      5.18586   23.48977    4.94045
C      5.97968   20.84982    2.06256
C      7.37835   20.84875    2.61766
O      7.53655   21.78357    3.72066
H      5.03337   18.55616    3.28233
H      3.45978   22.15800    2.39965
H      3.84977   19.24115    4.35245
H      5.81825   21.76308    1.46818
H      6.00003   20.03480    1.31866
H      8.08954   21.15550    1.83347
H      7.68075   19.84961    2.97363
H      5.58198   23.36598    2.89500
H      4.01571   24.07999    3.29880
H      6.88171   19.36786    4.74603
C      4.76470   20.62678    2.97593
H      4.03084   20.19834    2.27432
H      6.14525   19.95708    7.00672
H      4.63836   20.23918    6.43244
H      8.47428   22.00760    3.83543
H      5.68434   24.38222    5.02073
H      4.39157   23.56002    5.58561
C      2.89417   21.72520    4.37946
H      2.24132   22.60966    4.45412
H      2.24945   20.87553    4.11124
H      3.29105   21.52234    5.38808
C      5.73608   17.81500    5.65143
H      5.97422   17.07351    4.87454
H      6.44088   17.66530    6.48456
H      4.71341   17.61651    6.01085
