29

O     11.85502    7.17527   13.22302
Fe    13.43714    7.53249   11.60228
N     14.90555    7.79608    9.87732
N     12.29866    8.31436   10.07665
O     14.98876    8.62480   12.45092
N     14.00459    5.60229   11.17210
C     14.38890    8.91436    9.05838
H     14.73735    8.81243    8.01268
C     12.89171    8.86593    9.08589
C     16.20015    8.02327   10.50577
H     16.66556    7.04658   10.73384
H     16.92349    8.54414    9.85582
C     16.07322    8.68832   11.85443
C     14.86970    6.52983    9.14284
H     14.07986    6.56298    8.36905
H     15.80569    6.33399    8.58646
C     14.52679    5.38119   10.02503
H     12.33621    9.37612    8.28087
H     14.70106    4.35928    9.64558
H     13.74590    4.77706   11.72271
H     11.27491    8.36797   10.08549
C     14.78320   10.30326    9.54814
H     14.45117   10.47820   10.58110
H     15.86662   10.46380    9.46323
H     14.30538   11.06301    8.91063
C     17.24642    9.35354   12.44074
H     17.12717    9.49532   13.52345
H     18.17819    8.81593   12.19992
H     17.33771   10.34915   11.96398
