37

O      0.97122    0.41898    3.42833
N      0.11626   -2.02764    0.62675
C      1.02109   -1.97593   -0.53653
H      0.46602   -1.53198   -1.37767
H      1.31465   -2.99641   -0.84124
C     -1.24458   -2.48556    0.28489
H     -1.71910   -2.75130    1.24091
H     -1.21080   -3.39255   -0.34441
C      2.23136   -1.13414   -0.20596
H      2.82451   -1.61270    0.58778
H      2.89246   -1.04440   -1.08393
C     -2.03607   -1.40179   -0.39615
H     -3.08575   -1.72065   -0.51118
H     -1.64280   -1.14271   -1.39562
C      1.66306    1.23987   -0.72405
H      2.64745    1.56036   -1.10826
H      1.10349    0.83705   -1.58202
C     -2.52811    0.96830   -0.01855
H     -3.01032    1.44910    0.84454
H     -3.28555    0.76923   -0.79172
C     -1.39852    1.81342   -0.55412
H     -0.95012    1.34597   -1.44274
H     -1.76414    2.81165   -0.85939
C      0.94133    2.41023   -0.09476
H      1.53085    2.80642    0.74667
H      0.79140    3.23207   -0.81597
N     -0.34400    1.94773    0.46451
Fe    -0.07753   -0.00020    1.31756
N      1.80010    0.18255    0.27812
O     -1.97051   -0.26173    0.46359
H      2.42874    0.50190    1.01797
N      0.58214   -2.75989    1.73260
H      1.41170   -2.31125    2.11761
H      0.82651   -3.71646    1.45429
N     -0.85010    2.64633    1.56932
H     -1.07002    3.61794    1.32339
H     -0.15324    2.63672    2.31479
