23

O      0.42567    0.02005   -2.53040
O     -0.34171   -2.14590   -0.36927
O      0.07797    2.13762   -0.25050
P      2.17118   -0.05740    0.61689
N     -2.38389    0.33389   -0.24484
O     -0.50235   -0.00774    1.78455
H     -0.29125   -2.72988    0.40104
H     -0.04963   -2.67424   -1.12796
H      0.21245    2.33993    0.69112
H      3.05575    0.02299   -0.48990
H      2.63115   -1.25324    1.22376
H     -2.80475    0.98823    0.42091
H     -2.56230    0.74247   -1.16761
H     -1.32007   -0.07150    2.31196
Fe    -0.24926   -0.02297   -0.08690
H      2.70774    0.93008    1.47218
H     -2.94969   -0.51985   -0.20760
N      0.63723   -0.17022    2.58810
H      0.63611    0.57358    3.29585
H      0.55295   -1.05986    3.09300
N      1.30087    2.56617   -0.86762
H      1.15845    3.56836   -1.05404
H      1.24400    2.10899   -1.78554
