23

O      0.39521   -0.59301   -2.44388
O     -0.68464   -2.11666    0.47812
O      0.18933    2.08207   -0.28257
P      2.30972   -0.55754    0.05634
N     -2.37480    0.36712   -0.21615
O     -0.47882    0.27163    1.69224
H     -1.12783   -2.52655    1.23516
H     -0.56200   -2.80596   -0.19172
H      3.16724    0.33118   -0.64201
H      2.77127   -1.79303   -0.46383
H     -2.55959    1.10154   -0.90472
H     -2.88825   -0.45558   -0.54594
H     -0.05123   -0.17854    2.43422
H     -0.23636    1.24145    1.77340
Fe    -0.27644   -0.07959    0.03192
H      2.94239   -0.56589    1.32942
H     -2.82548    0.65512    0.65716
N      0.24389    2.71179    0.98275
H      1.19077    3.09130    1.11489
H     -0.41483    3.50186    0.97497
N      0.49817    2.81617   -1.41346
H     -0.13512    3.62353   -1.46170
H      1.46051    3.16516   -1.32741
