37

O      1.01547    0.43667    3.51740
N      0.07201   -2.04533    0.53768
C      0.97684   -1.99362   -0.62560
H      0.42177   -1.54967   -1.46674
H      1.27040   -3.01410   -0.93031
C     -1.28883   -2.50325    0.19582
H     -1.76335   -2.76899    1.15184
H     -1.25505   -3.41024   -0.43348
C      2.18711   -1.15183   -0.29503
H      2.78026   -1.63039    0.49871
H      2.84821   -1.06209   -1.17300
C     -2.08032   -1.41948   -0.48522
H     -3.13000   -1.73834   -0.60025
H     -1.68705   -1.16040   -1.48469
C      1.61881    1.22218   -0.81312
H      2.60320    1.54267   -1.19733
H      1.05924    0.81936   -1.67109
C     -2.57236    0.95061   -0.10762
H     -3.05457    1.43141    0.75547
H     -3.32980    0.75154   -0.88079
C     -1.44277    1.79573   -0.64319
H     -0.99437    1.32828   -1.53181
H     -1.80839    2.79396   -0.94846
C      0.89708    2.39254   -0.18383
H      1.48660    2.78873    0.65760
H      0.74715    3.21438   -0.90504
N     -0.38825    1.93004    0.37544
Fe    -0.12178   -0.01789    1.22849
N      1.75585    0.16486    0.18905
O     -2.01476   -0.27942    0.37452
H      2.38449    0.48421    0.92890
N      0.53789   -2.77758    1.64353
H      1.36745   -2.32894    2.02854
H      0.78226   -3.73415    1.36522
N     -0.89435    2.62864    1.48025
H     -1.11427    3.60025    1.23432
H     -0.19749    2.61903    2.22572
