24

O     -0.17958    0.64651   -2.62341
N      2.19532    0.34536   -1.14213
H      2.46575    0.35083   -2.13014
H      2.59023   -0.50340   -0.72620
Fe     0.07064    0.34659   -1.04475
H      2.67060    1.12947   -0.68892
P      0.27629    3.03788   -0.55478
H      1.11728    3.57301   -1.56651
H     -0.87528    3.83357   -0.80306
H      0.79082    3.72520    0.58078
P     -0.20068   -2.18094   -1.32815
H     -0.75509   -2.53322   -2.58381
H      0.94590   -3.01171   -1.28481
H     -1.05685   -2.89094   -0.44426
P     -2.19671    0.76557   -0.64432
H     -2.80795    1.60240   -1.62382
H     -2.97874   -0.41260   -0.74672
P      0.09230   -0.16733    1.29632
H      0.12341    0.86758    2.26834
H     -0.99193   -0.93967    1.78507
N     -2.50622    1.25253    0.93814
H     -2.17292    2.18525    1.18048
H     -3.45879    1.12141    1.28759
Br     1.80870   -1.39097    1.83026
