23

O     12.09896    7.08882   12.90344
Fe    12.98083    7.34990   11.95207
N     14.52355    7.67664   10.26330
N     11.90138    8.32522   10.51260
O     14.41478    8.76483   12.73011
N     13.69853    5.49001   11.57972
C     14.00883    8.78991    9.46107
H     14.45659    9.74245    9.80252
H     14.31547    8.71614    8.40227
C     12.53419    8.92753    9.57623
C     15.76684    7.95685   10.94924
H     16.19283    7.00282   11.31733
C     15.51539    8.77441   12.19721
C     14.57027    6.41033    9.53508
H     13.78261    6.39391    8.76242
H     15.52965    6.27414    9.00514
C     14.28946    5.26004   10.45783
H     12.02008    9.58380    8.85249
H     16.36072    9.34589   12.63819
H     13.48360    4.67500   12.16286
H     10.88956    8.48734   10.55391
Br    17.13999    8.75188    9.85523
Br    14.76381    3.59301    9.87102
