23

O      0.28584    0.01114   -2.02417
O     -0.34171   -2.14590   -0.36927
O      0.07797    2.13762   -0.25050
P      2.31101   -0.04849    0.11066
N     -2.24406    0.34280   -0.75107
O     -0.50235   -0.00774    1.78455
H     -0.29125   -2.72988    0.40104
H     -0.04963   -2.67424   -1.12796
H      0.21245    2.33993    0.69112
H      3.19558    0.03190   -0.99613
H      2.77098   -1.24433    0.71753
H     -2.66492    0.99714   -0.08532
H     -2.42247    0.75138   -1.67384
H     -1.32007   -0.07150    2.31196
Fe    -0.10943   -0.01406   -0.59313
H      2.84757    0.93899    0.96595
H     -2.80986   -0.51094   -0.71383
N      0.63723   -0.17022    2.58810
H      0.63611    0.57358    3.29585
H      0.55295   -1.05986    3.09300
N      1.30087    2.56617   -0.86762
H      1.15845    3.56836   -1.05404
H      1.24400    2.10899   -1.78554
