52

O      7.54483   23.22444    6.13315
Fe     6.20446   22.03386    4.83724
N      5.85678   20.30397    5.95790
C      5.60093   19.12988    5.09115
C      4.53018   19.40648    4.05115
P      4.94030   21.02511    3.35362
C      3.54658   22.10705    2.96305
C      4.12326   23.50046    3.12498
N      4.86799   23.66514    4.39718
C      5.97686   20.74220    1.83038
C      7.39152   20.56608    2.37127
N      7.74760   21.54838    3.40545
C      8.98951   21.14679    4.07636
C      7.92312   22.88059    2.81748
H      4.50832   18.64615    3.25392
H      3.17511   21.93411    1.93957
H      2.71383   21.90422    3.65371
H      3.51936   19.44533    4.48528
H      5.90287   21.69273    1.27650
H      8.12111   20.61042    1.54239
H      7.47585   19.56419    2.81806
H      8.72005   22.86743    2.05283
H      6.98903   23.20725    2.34370
H      8.19825   23.58576    3.61246
H      9.83261   21.16142    3.36430
H      9.18822   21.83986    4.90355
H      8.88347   20.12653    4.46453
H      4.83176   23.70881    2.30928
H      3.33255   24.26931    3.06122
C      3.94297   23.66621    5.53716
H      4.51673   23.77104    6.46627
H      3.23734   24.51168    5.45919
H      3.36846   22.73426    5.56517
C      5.58152   24.95234    4.37311
H      6.17300   25.05432    5.28978
H      6.25502   24.99251    3.51031
H      4.85653   25.78031    4.29630
H      5.31295   18.28580    5.74153
H      6.55304   18.86593    4.61159
C      4.63956   20.56136    6.82740
H      3.83560   20.84685    6.13533
H      4.91036   21.44858    7.41921
C      6.99651   20.00919    6.83906
H      6.77299   19.11553    7.44326
H      7.89359   19.82116    6.24119
H      7.18340   20.86737    7.49400
N      5.46714   19.68283    1.03948
H      5.38239   19.89242    0.04950
H      5.94183   18.79364    1.16597
N      4.28771   19.44568    7.60173
H      3.36321   19.06272    7.44387
H      4.49759   19.49998    8.59205
