53

O      5.87956   23.15991    7.31515
Fe     6.39405   22.42263    5.40505
P      6.05659   20.27045    5.93302
C      5.82109   18.98698    4.65791
C      4.75394   19.16284    3.58096
C      4.24697   21.63433    3.53971
C      4.48069   23.03555    2.97735
P      5.11275   23.97919    4.39973
C      5.94207   20.62825    1.83323
C      7.32525   20.71117    2.45035
P      7.69874   22.06061    3.61396
C      9.30568   21.57975    4.31266
C      8.13153   23.46623    2.55064
H      4.84975   18.29873    2.90393
H      5.00846   21.60323    4.44294
H      3.77249   19.02895    4.06176
H      5.77821   21.49430    1.17276
H      5.96738   19.76857    1.14316
H      8.07472   20.82279    1.64743
H      7.59192   19.78352    2.97072
H      8.96394   23.17507    1.89020
H      7.28043   23.77131    1.92740
H      8.45059   24.31529    3.17261
H     10.03645   21.40282    3.50663
H      9.68366   22.38407    4.96321
H      9.18862   20.66382    4.90859
H      5.27181   23.02428    2.21732
H      3.58069   23.47026    2.51246
C      3.70427   24.28160    5.48532
H      4.06805   24.84072    6.36006
H      2.93178   24.86546    4.95943
H      3.29208   23.32631    5.83578
C      5.65123   25.61653    3.87256
H      6.05550   26.14951    4.74777
H      6.42133   25.56292    3.09428
H      4.77969   26.17316    3.49034
H      5.56088   18.08829    5.24627
H      6.81299   18.76831    4.23896
C      4.39016   20.32962    6.83204
H      3.69688   20.79984    6.11310
H      4.10966   19.26455    6.92333
C      7.17542   19.51866    7.13644
H      6.78822   18.53049    7.43465
H      8.18567   19.40088    6.71927
H      7.22947   20.17585    8.01453
C      4.71666   20.42769    2.71690
H      3.89135   20.26380    1.99946
N      4.37506   20.97393    8.07232
H      4.61611   21.96523    8.02899
H      4.85196   20.49281    8.82897
N      2.95078   21.47774    4.05452
H      2.31366   22.25616    3.93661
H      2.49798   20.58513    3.89335
