36

O      7.23927   22.36047    6.28410
Fe     6.56964   22.01284    5.56772
N      5.79631   20.30939    6.34279
C      6.00921   19.30923    5.26683
C      5.02426   19.50995    4.12015
C      4.15367   22.02731    3.52598
C      4.88238   23.35361    3.74236
N      5.35489   23.57751    5.12129
C      6.14871   20.93756    2.24340
C      7.54738   20.93649    2.79850
O      7.70558   21.87131    3.90150
H      5.20240   18.64390    3.46317
H      3.62881   22.24574    2.58049
H      4.01880   19.32889    4.53329
H      5.98728   21.85082    1.64902
H      6.16906   20.12254    1.49950
H      8.25857   21.24324    2.01431
H      7.84978   19.93735    3.15447
H      5.75101   23.45372    3.07584
H      4.18474   24.16773    3.47964
H      7.05074   19.45560    4.92687
C      4.93373   20.71452    3.15677
H      4.19987   20.28608    2.45516
H      6.31428   20.04482    7.18756
H      4.80739   20.32692    6.61328
H      8.64331   22.09534    4.01627
H      5.85337   24.46996    5.20157
H      4.56060   23.64776    5.76645
C      3.06320   21.81294    4.56030
H      2.41035   22.69740    4.63496
H      2.41848   20.96327    4.29208
H      3.46008   21.61008    5.56892
C      5.90511   17.90274    5.83227
H      6.14325   17.16125    5.05538
H      6.60991   17.75304    6.66540
H      4.88244   17.70425    6.19169
