16

H 0.000000 0.000000 0.000000
H 0.000000 0.000000 0.624242
H 0.000000 0.000000 1.248485
H 0.000000 0.000000 1.872727
H 0.000000 0.000000 2.496970
H 0.000000 0.000000 3.121212
H 0.000000 0.000000 3.745455
H 0.000000 0.000000 4.369697
H 0.000000 0.000000 4.993939
H 0.000000 0.000000 5.618182
H 0.000000 0.000000 6.242424
H 0.000000 0.000000 6.866667
H 0.000000 0.000000 7.490909
H 0.000000 0.000000 8.115152
H 0.000000 0.000000 8.739394
H 0.000000 0.000000 9.363636
