37

O      1.04644    0.44905    3.57974
N      0.04104   -2.05771    0.47534
C      0.94587   -2.00600   -0.68794
H      0.39080   -1.56205   -1.52908
H      1.23943   -3.02648   -0.99265
C     -1.31980   -2.51563    0.13348
H     -1.79432   -2.78137    1.08950
H     -1.28602   -3.42262   -0.49582
C      2.15614   -1.16421   -0.35737
H      2.74929   -1.64277    0.43637
H      2.81724   -1.07447   -1.23534
C     -2.11129   -1.43186   -0.54756
H     -3.16097   -1.75072   -0.66259
H     -1.71802   -1.17278   -1.54703
C      1.58784    1.20980   -0.87546
H      2.57223    1.53029   -1.25967
H      1.02827    0.80698   -1.73343
C     -2.60333    0.93823   -0.16996
H     -3.08554    1.41903    0.69313
H     -3.36077    0.73916   -0.94313
C     -1.47374    1.78335   -0.70553
H     -1.02534    1.31590   -1.59415
H     -1.83936    2.78158   -1.01080
C      0.86611    2.38016   -0.24617
H      1.45563    2.77635    0.59526
H      0.71618    3.20200   -0.96738
N     -0.41922    1.91766    0.31310
Fe    -0.15275   -0.03027    1.16615
N      1.72488    0.15248    0.12671
O     -2.04573   -0.29180    0.31218
H      2.35352    0.47183    0.86656
N      0.50692   -2.78996    1.58119
H      1.33648   -2.34132    1.96620
H      0.75129   -3.74653    1.30288
N     -0.92532    2.61626    1.41791
H     -1.14524    3.58787    1.17198
H     -0.22846    2.60665    2.16338
