54

O      7.21037   22.79361    6.54822
Fe     6.17488   22.22259    5.07526
P      5.98558   20.19388    6.14640
C      5.25482   18.89735    5.07290
C      4.23514   19.57339    4.17784
P      5.05329   21.06572    3.52563
C      3.80307   22.21461    2.89012
C      4.34179   23.61426    3.10143
N      4.99537   23.86396    4.40984
C      6.15880   20.52898    2.15853
C      7.59295   20.49189    2.65579
P      7.92219   22.06263    3.54126
C      9.53167   21.92488    4.34434
C      8.19460   23.26330    2.20969
H      3.87368   18.92843    3.36008
H      3.60140   22.03502    1.82165
H      2.87013   22.02432    3.43470
H      3.35782   19.91291    4.75265
H      6.04271   21.26044    1.34219
H      5.81981   19.55509    1.76925
H      8.31348   20.34219    1.83443
H      7.74283   19.67482    3.37910
H      9.00004   22.88850    1.55688
H      7.28786   23.41417    1.60840
H      8.50952   24.22528    2.64027
H     10.31048   21.68592    3.60260
H      9.75495   22.88990    4.82429
H      9.50515   21.15676    5.12677
H      5.11180   23.80721    2.34074
H      3.54773   24.36473    2.94276
C      4.03905   24.09170    5.51220
H      4.64903   24.39392    6.37166
H      3.39502   24.95267    5.25612
C      5.82784   25.08633    4.20836
H      6.53679   24.83138    3.41127
H      5.15813   25.86449    3.79641
H      4.81807   18.09189    5.68584
H      6.07146   18.45222    4.48190
C      4.97597   20.21100    7.64497
H      3.92390   20.41397    7.40356
H      5.05421   19.22738    8.13556
H      5.35093   20.99111    8.32054
C      7.60231   19.59200    6.66626
H      7.48071   18.65902    7.24003
H      8.23029   19.39510    5.78728
H      8.07669   20.36386    7.28931
C      6.56875   25.63386    5.39747
H      5.90007   26.02730    6.17587
H      7.23681   24.88463    5.84108
H      7.17783   26.48243    5.04934
C      3.21612   22.88435    5.88775
H      2.82855   22.99893    6.91040
H      2.35458   22.71895    5.22851
H      3.85076   21.98128    5.86939
