18

O      0.66039   -0.08432   -1.97587
O     -0.24436   -2.08720   -0.30365
O      0.48772    2.06423   -0.25816
N      2.32452   -0.40307    0.04096
O     -1.87800    0.34074   -0.54394
O     -0.33312    0.05252    1.71435
H     -0.46782   -2.50686    0.54722
H      0.40847    2.51993    0.59973
H      2.91970    0.33280   -0.35334
H      2.64248   -1.27261   -0.39951
H     -2.16696    1.17628   -0.94383
H     -2.43112   -0.34195   -0.95570
H      0.09815   -0.02801    2.57767
H     -1.27174    0.21562    1.89506
Fe     0.29834   -0.03889   -0.51572
H      2.56936   -0.47387    1.03250
Br     1.29724    3.26418   -1.41593
Br     0.15850   -3.46611   -1.47533
