23

O      0.43911    0.02091   -2.57907
O     -0.34171   -2.14590   -0.36927
O      0.07797    2.13762   -0.25050
P      2.15774   -0.05826    0.66556
N     -2.39733    0.33303   -0.19617
O     -0.50235   -0.00774    1.78455
H     -0.29125   -2.72988    0.40104
H     -0.04963   -2.67424   -1.12796
H      0.21245    2.33993    0.69112
H      3.04231    0.02213   -0.44123
H      2.61771   -1.25410    1.27243
H     -2.81819    0.98737    0.46958
H     -2.57574    0.74161   -1.11894
H     -1.32007   -0.07150    2.31196
Fe    -0.26270   -0.02383   -0.03823
H      2.69430    0.92922    1.52085
H     -2.96313   -0.52071   -0.15893
N      0.63723   -0.17022    2.58810
H      0.63611    0.57358    3.29585
H      0.55295   -1.05986    3.09300
N      1.30087    2.56617   -0.86762
H      1.15845    3.56836   -1.05404
H      1.24400    2.10899   -1.78554
