23

O     12.05857    7.07686   12.94701
Fe    13.02122    7.36186   11.90850
N     14.56394    7.68860   10.21973
N     11.94177    8.33718   10.46903
O     14.45517    8.77679   12.68654
N     13.73892    5.50197   11.53615
C     14.04922    8.80187    9.41750
H     14.49698    9.75441    9.75895
H     14.35586    8.72810    8.35870
C     12.57458    8.93949    9.53266
C     15.80723    7.96881   10.90567
H     16.23322    7.01478   11.27376
C     15.55578    8.78637   12.15364
C     14.61066    6.42229    9.49151
H     13.82300    6.40587    8.71885
H     15.57004    6.28610    8.96157
C     14.32985    5.27200   10.41426
H     12.06047    9.59576    8.80892
H     16.40111    9.35785   12.59462
H     13.52399    4.68696   12.11929
H     10.92995    8.49930   10.51034
Br    17.18038    8.76384    9.81166
Br    14.80420    3.60497    9.82745
