45

O     -0.38892   -3.42542    0.13494
Fe    -0.17083   -1.89064    2.36650
N      1.93832   -2.01978    2.84019
N      0.34074   -0.00464    1.55922
N     -2.20778   -1.56266    2.97612
O     -0.10546   -1.74611    4.54561
C      0.01192    0.07335    0.12816
C      1.79795    0.16050    1.75600
C      2.28628   -0.59211    2.97159
C      2.74271   -2.67534    1.80190
C     -0.39389    1.01924    2.33869
C     -1.90129    0.86985    2.38037
C     -2.44160   -0.15341    3.35254
C     -3.09147   -1.97911    1.87659
C      1.12812   -2.09144    5.15501
C      1.93369   -2.78364    4.08487
C     -1.31656   -2.12492    5.20147
C     -2.31378   -2.47059    4.11311
H     -2.90595   -3.03325    1.63796
H     -4.14416   -1.84752    2.17323
H     -2.88166   -1.37685    0.98578
H      0.28760    1.06391   -0.27176
H      0.55113   -0.71417   -0.41160
H     -1.06101   -0.08684   -0.02425
H      2.04727    1.23030    1.85607
H      2.30500   -0.19298    0.84991
H      2.58864   -2.17744    0.83938
H      3.81196   -2.64362    2.07038
H      2.41911   -3.71696    1.69894
H      1.80552   -0.18623    3.86999
H      3.37561   -0.45855    3.09133
H      2.94654   -3.05743    4.42864
H     -1.15609   -3.01510    5.82797
H     -1.66524   -1.29922    5.84199
H     -2.12510   -3.48674    3.73183
H     -1.98378    0.01533    4.33554
H     -3.52836   -0.01869    3.48237
H     -2.29560    1.84229    2.71694
H     -2.32363    0.74057    1.37354
H      0.00565    1.00635    3.36492
H     -0.13678    2.00325    1.90635
H      1.62789   -1.18380    5.53441
H      0.98198   -2.77112    6.00764
Br     0.99669   -4.46150    3.72028
Br    -4.06465   -2.53165    4.92025
