52

O      7.67336   23.33860    6.25742
Fe     6.07593   21.91970    4.71297
N      5.72825   20.18981    5.83363
C      5.47240   19.01572    4.96688
C      4.40165   19.29232    3.92688
P      4.81177   20.91095    3.22935
C      3.41805   21.99289    2.83878
C      3.99473   23.38630    3.00071
N      4.73946   23.55098    4.27291
C      5.84833   20.62804    1.70611
C      7.26299   20.45192    2.24700
N      7.61907   21.43422    3.28118
C      8.86098   21.03263    3.95209
C      7.79459   22.76643    2.69321
H      4.37979   18.53199    3.12965
H      3.04658   21.81995    1.81530
H      2.58530   21.79006    3.52944
H      3.39083   19.33117    4.36101
H      5.77434   21.57857    1.15223
H      7.99258   20.49626    1.41812
H      7.34732   19.45003    2.69379
H      8.59152   22.75327    1.92856
H      6.86050   23.09309    2.21943
H      8.06972   23.47160    3.48819
H      9.70408   21.04726    3.24003
H      9.05969   21.72570    4.77928
H      8.75494   20.01237    4.34026
H      4.70323   23.59465    2.18501
H      3.20402   24.15515    2.93695
C      3.81444   23.55205    5.41289
H      4.38820   23.65688    6.34200
H      3.10881   24.39752    5.33492
H      3.23993   22.62010    5.44090
C      5.45299   24.83818    4.24884
H      6.04447   24.94016    5.16551
H      6.12649   24.87835    3.38604
H      4.72800   25.66615    4.17203
H      5.18442   18.17164    5.61726
H      6.42451   18.75177    4.48732
C      4.51103   20.44720    6.70313
H      3.70707   20.73269    6.01106
H      4.78183   21.33442    7.29494
C      6.86798   19.89503    6.71479
H      6.64446   19.00137    7.31899
H      7.76506   19.70700    6.11692
H      7.05487   20.75321    7.36973
N      5.33861   19.56867    0.91521
H      5.25386   19.77826   -0.07477
H      5.81330   18.67948    1.04170
N      4.15918   19.33152    7.47746
H      3.23468   18.94856    7.31960
H      4.36906   19.38582    8.46778
