18

O      0.84021   -0.10688   -2.70104
O     -0.42418   -2.06464    0.42152
O      0.30790    2.08679    0.46701
N      2.14470   -0.38051    0.76613
O     -1.87800    0.34074   -0.54394
O     -0.33312    0.05252    1.71435
H     -0.64764   -2.48430    1.27239
H      0.22865    2.54249    1.32490
H      2.73988    0.35536    0.37183
H      2.46266   -1.25005    0.32566
H     -2.16696    1.17628   -0.94383
H     -2.43112   -0.34195   -0.95570
H      0.09815   -0.02801    2.57767
H     -1.27174    0.21562    1.89506
Fe     0.11852   -0.01633    0.20945
H      2.38954   -0.45131    1.75767
Br     1.11742    3.28674   -0.69076
Br    -0.02132   -3.44355   -0.75016
