18

O      0.82806   -0.10535   -2.65204
O     -0.41203   -2.06617    0.37252
O      0.32005    2.08526    0.41801
N      2.15685   -0.38204    0.71713
O     -1.87800    0.34074   -0.54394
O     -0.33312    0.05252    1.71435
H     -0.63549   -2.48583    1.22339
H      0.24080    2.54096    1.27590
H      2.75203    0.35383    0.32283
H      2.47481   -1.25158    0.27666
H     -2.16696    1.17628   -0.94383
H     -2.43112   -0.34195   -0.95570
H      0.09815   -0.02801    2.57767
H     -1.27174    0.21562    1.89506
Fe     0.13067   -0.01786    0.16045
H      2.40169   -0.45284    1.70867
Br     1.12957    3.28521   -0.73976
Br    -0.00917   -3.44508   -0.79916
