54

O      7.23252   22.80582    6.57973
Fe     6.15273   22.21038    5.04375
P      5.96343   20.18167    6.11489
C      5.23267   18.88514    5.04139
C      4.21299   19.56118    4.14633
P      5.03114   21.05351    3.49412
C      3.78092   22.20240    2.85861
C      4.31964   23.60205    3.06992
N      4.97322   23.85175    4.37833
C      6.13665   20.51677    2.12702
C      7.57080   20.47968    2.62428
P      7.90004   22.05042    3.50975
C      9.50952   21.91267    4.31283
C      8.17245   23.25109    2.17818
H      3.85153   18.91622    3.32857
H      3.57925   22.02281    1.79014
H      2.84798   22.01211    3.40319
H      3.33567   19.90070    4.72114
H      6.02056   21.24823    1.31068
H      5.79766   19.54288    1.73774
H      8.29133   20.32998    1.80292
H      7.72068   19.66261    3.34759
H      8.97789   22.87629    1.52537
H      7.26571   23.40196    1.57689
H      8.48737   24.21307    2.60876
H     10.28833   21.67371    3.57109
H      9.73280   22.87769    4.79278
H      9.48300   21.14455    5.09526
H      5.08965   23.79500    2.30923
H      3.52558   24.35252    2.91125
C      4.01690   24.07949    5.48069
H      4.62688   24.38171    6.34015
H      3.37287   24.94046    5.22461
C      5.80569   25.07412    4.17685
H      6.51464   24.81917    3.37976
H      5.13598   25.85228    3.76490
H      4.79592   18.07968    5.65433
H      6.04931   18.44001    4.45039
C      4.95382   20.19879    7.61346
H      3.90175   20.40176    7.37205
H      5.03206   19.21517    8.10405
H      5.32878   20.97890    8.28903
C      7.58016   19.57979    6.63475
H      7.45856   18.64681    7.20852
H      8.20814   19.38289    5.75577
H      8.05454   20.35165    7.25780
C      6.54660   25.62165    5.36596
H      5.87792   26.01509    6.14436
H      7.21466   24.87242    5.80957
H      7.15568   26.47022    5.01783
C      3.19397   22.87214    5.85624
H      2.80640   22.98672    6.87889
H      2.33243   22.70674    5.19700
H      3.82861   21.96907    5.83788
