33

O      6.77163   22.54772    6.66149
Fe     6.34910   21.88053    5.30960
N      6.10571   19.81052    5.85151
C      5.79778   18.92793    4.71822
C      4.63523   19.36318    3.84146
C      4.05422   21.90493    3.77079
C      4.54683   23.28055    3.33956
N      5.85005   23.54849    3.96073
C      5.97939   20.84408    2.20742
C      7.38642   20.81151    2.74666
N      7.68813   21.29396    3.92731
H      4.52202   18.55165    3.10422
H      2.97616   21.85065    3.54022
H      3.68971   19.32828    4.41108
H      5.91193   21.77477    1.61833
H      5.92443   20.04892    1.44738
H      4.58470   23.36193    2.24351
H      3.81785   24.03522    3.67479
H      5.58294   17.90826    5.08318
H      6.71138   18.84553    4.11264
C      4.70169   20.68188    3.05068
H      3.96813   20.52665    2.24307
H      6.97959   19.50836    6.29182
H      5.40447   19.71145    6.59056
H      8.68420   21.26575    4.15516
H      6.59920   23.62245    3.27280
H      5.85095   24.43288    4.47216
N      8.30158   20.32049    1.90940
H      9.29288   20.33085    2.13134
H      8.04662   19.97182    0.99180
N      4.23847   21.85579    5.22545
H      3.80472   22.66291    5.68240
H      3.78336   21.03422    5.62252
