36

O      7.66834   22.58321    6.74315
Fe     6.14057   21.79010    5.10867
N      5.36724   20.08665    5.88374
C      5.58014   19.08649    4.80778
C      4.59519   19.28721    3.66110
C      3.72460   21.80457    3.06693
C      4.45331   23.13087    3.28331
N      4.92582   23.35477    4.66224
C      5.71964   20.71482    1.78435
C      7.11831   20.71375    2.33945
O      7.27651   21.64857    3.44245
H      4.77333   18.42116    3.00412
H      3.19974   22.02300    2.12144
H      3.58973   19.10615    4.07424
H      5.55821   21.62808    1.18997
H      5.73999   19.89980    1.04045
H      7.82950   21.02050    1.55526
H      7.42071   19.71461    2.69542
H      5.32194   23.23098    2.61679
H      3.75567   23.94499    3.02059
H      6.62167   19.23286    4.46782
C      4.50466   20.49178    2.69772
H      3.77080   20.06334    1.99611
H      5.88521   19.82208    6.72851
H      4.37832   20.10418    6.15423
H      8.21424   21.87260    3.55722
H      5.42430   24.24722    4.74252
H      4.13153   23.42502    5.30740
C      2.63413   21.59020    4.10125
H      1.98128   22.47466    4.17591
H      1.98941   20.74053    3.83303
H      3.03101   21.38734    5.10987
C      5.47604   17.68000    5.37322
H      5.71418   16.93851    4.59633
H      6.18084   17.53030    6.20635
H      4.45337   17.48151    5.73264
