22

O      0.38134   -0.23063   -2.10134
O     -0.66709   -2.13712   -0.38183
O     -0.17093    1.84606   -0.18169
P      2.23503   -0.58907   -0.11074
O     -2.35339    0.11938   -0.75358
O     -0.76755   -0.13725    1.74867
H     -0.72924   -2.43266    0.54358
H     -0.64881    1.90918    0.73159
H      0.22999    2.67976   -0.46140
H      3.15794    0.29233   -0.72639
H      2.67163   -1.85353   -0.57538
H     -2.71514    0.87660   -1.24004
H     -2.86977   -0.64808   -1.04523
H      0.06134   -0.08743    2.25404
Fe    -0.12851   -0.08870   -0.75734
H      2.72989   -0.60662    1.22161
N      0.19404   -3.08776   -1.01502
H     -0.43151   -3.85283   -1.30283
H      0.44633   -2.60182   -1.88377
N     -1.42320    1.10119    2.01296
H     -2.39675    0.90660    1.75224
H     -1.43649    1.24044    3.03273
