36

O      7.71385   22.60684    6.79183
Fe     6.09506   21.76647    5.05999
N      5.32173   20.06302    5.83506
C      5.53463   19.06286    4.75910
C      4.54968   19.26358    3.61242
C      3.67909   21.78094    3.01825
C      4.40780   23.10724    3.23463
N      4.88031   23.33114    4.61356
C      5.67413   20.69119    1.73567
C      7.07280   20.69012    2.29077
O      7.23100   21.62494    3.39377
H      4.72782   18.39753    2.95544
H      3.15423   21.99937    2.07276
H      3.54422   19.08252    4.02556
H      5.51270   21.60445    1.14129
H      5.69448   19.87617    0.99177
H      7.78399   20.99687    1.50658
H      7.37520   19.69098    2.64674
H      5.27643   23.20735    2.56811
H      3.71016   23.92136    2.97191
H      6.57616   19.20923    4.41914
C      4.45915   20.46815    2.64904
H      3.72529   20.03971    1.94743
H      5.83970   19.79845    6.67983
H      4.33281   20.08055    6.10555
H      8.16873   21.84897    3.50854
H      5.37879   24.22359    4.69384
H      4.08602   23.40139    5.25872
C      2.58862   21.56657    4.05257
H      1.93577   22.45103    4.12723
H      1.94390   20.71690    3.78435
H      2.98550   21.36371    5.06119
C      5.43053   17.65637    5.32454
H      5.66867   16.91488    4.54765
H      6.13533   17.50667    6.15767
H      4.40786   17.45788    5.68396
