22

O      0.44121   -0.06372   -2.02291
O     -0.13176   -2.17943   -0.07121
O      0.10773    2.16127   -0.26153
P      2.37737   -0.30773    0.05401
O     -2.03442   -0.06512   -0.72885
O     -0.64106    0.01076    1.68341
H     -0.22828   -2.85443   -0.76923
H      0.53141    2.57598    0.50515
H      0.36283    2.70154   -1.02613
H      3.28748    0.73834   -0.24567
H      3.01975   -1.40225   -0.57584
H     -2.61023    0.32029   -1.40398
H     -2.31546    0.26555    0.22620
H     -0.79213   -1.01458    1.66698
Fe     0.00581    0.03131   -0.69148
H      2.68582   -0.55089    1.41791
N     -0.93253   -2.47185    1.03290
H     -1.88513   -2.68965    0.71559
H     -0.54582   -3.29455    1.51254
N     -1.94509    0.54948    1.82075
H     -2.37163    0.13016    2.65796
H     -1.79979    1.53586    2.06131
