22

O      0.66531   -1.05617   -2.89116
N      2.79878   -0.75498   -0.41972
H      3.21989   -0.62371   -1.34293
H      3.07628   -1.69324   -0.11662
Fe     0.64341   -0.33944   -0.12396
H      3.26331   -0.09277    0.20717
P      0.73941    1.92799   -0.51753
H      0.11339    2.35344   -1.71911
H      0.11316    2.78072    0.42959
P     -0.57640   -2.28884    0.11974
H     -1.47213   -2.56642   -0.94223
H      0.29070   -3.41182    0.06380
H     -1.35220   -2.59720    1.26784
P     -1.98622    0.47071   -0.94972
H     -2.37131    0.04025   -2.24560
H     -2.94231   -0.23275   -0.16537
H     -2.60801    1.75281   -0.92983
P      0.54568    0.04982    2.13146
H      0.88800   -1.03470    2.98816
H     -0.73019    0.37641    2.66835
Br     1.81642    1.63076    2.89839
Br     2.72529    2.78876   -0.67088
