23

O     12.11243    7.09280   12.88891
Fe    12.96736    7.34592   11.96660
N     14.51008    7.67266   10.27783
N     11.88791    8.32124   10.52713
O     14.40131    8.76085   12.74464
N     13.68506    5.48603   11.59425
C     13.99536    8.78593    9.47560
H     14.44312    9.73847    9.81705
H     14.30200    8.71216    8.41680
C     12.52072    8.92355    9.59076
C     15.75337    7.95287   10.96377
H     16.17936    6.99884   11.33186
C     15.50192    8.77043   12.21174
C     14.55680    6.40635    9.54961
H     13.76914    6.38993    8.77695
H     15.51618    6.27016    9.01967
C     14.27599    5.25606   10.47236
H     12.00661    9.57982    8.86702
H     16.34725    9.34191   12.65272
H     13.47013    4.67102   12.17739
H     10.87609    8.48336   10.56844
Br    17.12652    8.74790    9.86976
Br    14.75034    3.58903    9.88555
