45

O     -0.34027   -3.08309    0.63268
Fe    -0.21948   -2.23297    1.86876
N      1.88967   -2.36211    2.34245
N      0.29209   -0.34697    1.06148
N     -2.25643   -1.90499    2.47838
O     -0.15411   -2.08844    4.04787
C     -0.03673   -0.26898   -0.36958
C      1.74930   -0.18183    1.25826
C      2.23763   -0.93444    2.47385
C      2.69406   -3.01767    1.30416
C     -0.44254    0.67691    1.84095
C     -1.94994    0.52752    1.88263
C     -2.49025   -0.49574    2.85480
C     -3.14012   -2.32144    1.37885
C      1.07947   -2.43377    4.65727
C      1.88504   -3.12597    3.58713
C     -1.36521   -2.46725    4.70373
C     -2.36243   -2.81292    3.61537
H     -2.95460   -3.37558    1.14022
H     -4.19281   -2.18985    1.67549
H     -2.93031   -1.71918    0.48804
H      0.23895    0.72158   -0.76950
H      0.50248   -1.05650   -0.90934
H     -1.10966   -0.42917   -0.52199
H      1.99862    0.88797    1.35833
H      2.25635   -0.53531    0.35217
H      2.53999   -2.51977    0.34164
H      3.76331   -2.98595    1.57264
H      2.37046   -4.05929    1.20120
H      1.75687   -0.52856    3.37225
H      3.32696   -0.80088    2.59359
H      2.89789   -3.39976    3.93090
H     -1.20474   -3.35743    5.33023
H     -1.71389   -1.64155    5.34425
H     -2.17375   -3.82907    3.23409
H     -2.03243   -0.32700    3.83780
H     -3.57701   -0.36102    2.98463
H     -2.34425    1.49996    2.21920
H     -2.37228    0.39824    0.87580
H     -0.04300    0.66402    2.86718
H     -0.18543    1.66092    1.40861
H      1.57924   -1.52613    5.03667
H      0.93333   -3.11345    5.50990
Br     0.94804   -4.80383    3.22254
Br    -4.11330   -2.87398    4.42251
