54

O      7.15499   22.76307    6.46945
Fe     6.23026   22.25313    5.15403
P      6.04096   20.22442    6.22517
C      5.31020   18.92789    5.15167
C      4.29052   19.60393    4.25661
P      5.10867   21.09626    3.60440
C      3.85845   22.24515    2.96889
C      4.39717   23.64480    3.18020
N      5.05075   23.89450    4.48861
C      6.21418   20.55952    2.23730
C      7.64833   20.52243    2.73456
P      7.97757   22.09317    3.62003
C      9.58705   21.95542    4.42311
C      8.24998   23.29384    2.28846
H      3.92906   18.95897    3.43885
H      3.65678   22.06556    1.90042
H      2.92551   22.05486    3.51347
H      3.41320   19.94345    4.83142
H      6.09809   21.29098    1.42096
H      5.87519   19.58563    1.84802
H      8.36886   20.37273    1.91320
H      7.79821   19.70536    3.45787
H      9.05542   22.91904    1.63565
H      7.34324   23.44471    1.68717
H      8.56490   24.25582    2.71904
H     10.36586   21.71646    3.68137
H      9.81033   22.92044    4.90306
H      9.56053   21.18730    5.20554
H      5.16718   23.83775    2.41951
H      3.60311   24.39527    3.02153
C      4.09443   24.12224    5.59097
H      4.70441   24.42446    6.45043
H      3.45040   24.98321    5.33489
C      5.88322   25.11687    4.28713
H      6.59217   24.86192    3.49004
H      5.21351   25.89503    3.87518
H      4.87345   18.12243    5.76461
H      6.12684   18.48276    4.56067
C      5.03135   20.24154    7.72374
H      3.97928   20.44451    7.48233
H      5.10959   19.25792    8.21433
H      5.40631   21.02165    8.39931
C      7.65769   19.62254    6.74503
H      7.53609   18.68956    7.31880
H      8.28567   19.42564    5.86605
H      8.13207   20.39440    7.36808
C      6.62413   25.66440    5.47624
H      5.95545   26.05784    6.25464
H      7.29219   24.91517    5.91985
H      7.23321   26.51297    5.12811
C      3.27150   22.91489    5.96652
H      2.88393   23.02947    6.98917
H      2.40996   22.74949    5.30728
H      3.90614   22.01182    5.94816
