23

O      0.27240    0.01028   -1.97550
O     -0.34171   -2.14590   -0.36927
O      0.07797    2.13762   -0.25050
P      2.32445   -0.04763    0.06199
N     -2.23062    0.34366   -0.79974
O     -0.50235   -0.00774    1.78455
H     -0.29125   -2.72988    0.40104
H     -0.04963   -2.67424   -1.12796
H      0.21245    2.33993    0.69112
H      3.20902    0.03276   -1.04480
H      2.78442   -1.24347    0.66886
H     -2.65148    0.99800   -0.13399
H     -2.40903    0.75224   -1.72251
H     -1.32007   -0.07150    2.31196
Fe    -0.09599   -0.01320   -0.64180
H      2.86101    0.93985    0.91728
H     -2.79642   -0.51008   -0.76250
N      0.63723   -0.17022    2.58810
H      0.63611    0.57358    3.29585
H      0.55295   -1.05986    3.09300
N      1.30087    2.56617   -0.86762
H      1.15845    3.56836   -1.05404
H      1.24400    2.10899   -1.78554
