22

O      0.44909   -0.24949   -2.27991
O     -0.66709   -2.13712   -0.38183
O     -0.23868    1.86492   -0.00312
P      2.16728   -0.57021    0.06783
O     -2.35339    0.11938   -0.75358
O     -0.76755   -0.13725    1.74867
H     -0.72924   -2.43266    0.54358
H     -0.71656    1.92804    0.91016
H      0.16224    2.69862   -0.28283
H      3.09019    0.31119   -0.54782
H      2.60388   -1.83467   -0.39681
H     -2.71514    0.87660   -1.24004
H     -2.86977   -0.64808   -1.04523
H      0.06134   -0.08743    2.25404
Fe    -0.19626   -0.06984   -0.57877
H      2.66214   -0.58776    1.40018
N      0.19404   -3.08776   -1.01502
H     -0.43151   -3.85283   -1.30283
H      0.44633   -2.60182   -1.88377
N     -1.42320    1.10119    2.01296
H     -2.39675    0.90660    1.75224
H     -1.43649    1.24044    3.03273
