23

O     11.61428    6.94532   13.42633
Fe    13.46551    7.49340   11.42918
N     15.00823    7.82014    9.74041
N     12.38606    8.46872    9.98971
O     14.89946    8.90833   12.20722
N     14.18321    5.63351   11.05683
C     14.49351    8.93341    8.93818
H     14.94127    9.88595    9.27963
H     14.80015    8.85964    7.87938
C     13.01887    9.07103    9.05334
C     16.25152    8.10035   10.42635
H     16.67751    7.14632   10.79444
C     16.00007    8.91791   11.67432
C     15.05495    6.55383    9.01219
H     14.26729    6.53741    8.23953
H     16.01433    6.41764    8.48225
C     14.77414    5.40354    9.93494
H     12.50476    9.72730    8.32960
H     16.84540    9.48939   12.11530
H     13.96828    4.81850   11.63997
H     11.37424    8.63084   10.03102
Br    17.62467    8.89538    9.33234
Br    15.24849    3.73651    9.34813
