52

O      7.50811   23.19182    6.09765
Fe     6.24118   22.06648    4.87274
N      5.89350   20.33659    5.99340
C      5.63765   19.16250    5.12665
C      4.56690   19.43910    4.08665
P      4.97702   21.05773    3.38912
C      3.58330   22.13967    2.99855
C      4.15998   23.53308    3.16048
N      4.90471   23.69776    4.43268
C      6.01358   20.77482    1.86588
C      7.42824   20.59870    2.40677
N      7.78432   21.58100    3.44095
C      9.02623   21.17941    4.11186
C      7.95984   22.91321    2.85298
H      4.54504   18.67877    3.28942
H      3.21183   21.96673    1.97507
H      2.75055   21.93684    3.68921
H      3.55608   19.47795    4.52078
H      5.93959   21.72535    1.31200
H      8.15783   20.64304    1.57789
H      7.51257   19.59681    2.85356
H      8.75677   22.90005    2.08833
H      7.02575   23.23987    2.37920
H      8.23497   23.61838    3.64796
H      9.86933   21.19404    3.39980
H      9.22494   21.87248    4.93905
H      8.92019   20.15915    4.50003
H      4.86848   23.74143    2.34478
H      3.36927   24.30193    3.09672
C      3.97969   23.69883    5.57266
H      4.55345   23.80366    6.50177
H      3.27406   24.54430    5.49469
H      3.40518   22.76688    5.60067
C      5.61824   24.98496    4.40861
H      6.20972   25.08694    5.32528
H      6.29174   25.02513    3.54581
H      4.89325   25.81293    4.33180
H      5.34967   18.31842    5.77703
H      6.58976   18.89855    4.64709
C      4.67628   20.59398    6.86290
H      3.87232   20.87947    6.17083
H      4.94708   21.48120    7.45471
C      7.03323   20.04181    6.87456
H      6.80971   19.14815    7.47876
H      7.93031   19.85378    6.27669
H      7.22012   20.89999    7.52950
N      5.50386   19.71545    1.07498
H      5.41911   19.92504    0.08500
H      5.97855   18.82626    1.20147
N      4.32443   19.47830    7.63723
H      3.39993   19.09534    7.47937
H      4.53431   19.53260    8.62755
