24

O     -0.23242    0.70985   -2.95679
N      2.24816    0.28202   -0.80875
H      2.51859    0.28749   -1.79676
H      2.64307   -0.56674   -0.39282
Fe     0.12348    0.28325   -0.71137
H      2.72344    1.06613   -0.35554
P      0.27629    3.03788   -0.55478
H      1.11728    3.57301   -1.56651
H     -0.87528    3.83357   -0.80306
H      0.79082    3.72520    0.58078
P     -0.20068   -2.18094   -1.32815
H     -0.75509   -2.53322   -2.58381
H      0.94590   -3.01171   -1.28481
H     -1.05685   -2.89094   -0.44426
P     -2.14387    0.70223   -0.31094
H     -2.75511    1.53906   -1.29044
H     -2.92590   -0.47594   -0.41334
P      0.14514   -0.23067    1.62970
H      0.17625    0.80424    2.60172
H     -0.93909   -1.00301    2.11845
N     -2.45338    1.18919    1.27152
H     -2.12008    2.12191    1.51386
H     -3.40595    1.05807    1.62097
Br     1.86154   -1.45431    2.16364
