24

O     -0.13296    0.59063   -2.32925
N      2.14870    0.40124   -1.43629
H      2.41913    0.40671   -2.42430
H      2.54361   -0.44752   -1.02036
Fe     0.02402    0.40247   -1.33891
H      2.62398    1.18535   -0.98308
P      0.27629    3.03788   -0.55478
H      1.11728    3.57301   -1.56651
H     -0.87528    3.83357   -0.80306
H      0.79082    3.72520    0.58078
P     -0.20068   -2.18094   -1.32815
H     -0.75509   -2.53322   -2.58381
H      0.94590   -3.01171   -1.28481
H     -1.05685   -2.89094   -0.44426
P     -2.24333    0.82145   -0.93848
H     -2.85457    1.65828   -1.91798
H     -3.02536   -0.35672   -1.04088
P      0.04568   -0.11145    1.00216
H      0.07679    0.92346    1.97418
H     -1.03855   -0.88379    1.49091
N     -2.55284    1.30841    0.64398
H     -2.21954    2.24113    0.88632
H     -3.50541    1.17729    0.99343
Br     1.76208   -1.33509    1.53610
