23

O     11.84989    7.01507   13.17214
Fe    13.22990    7.42365   11.68337
N     14.77262    7.75039    9.99460
N     12.15045    8.39897   10.24390
O     14.66385    8.83858   12.46141
N     13.94760    5.56376   11.31102
C     14.25790    8.86366    9.19237
H     14.70566    9.81620    9.53382
H     14.56454    8.78989    8.13357
C     12.78326    9.00128    9.30753
C     16.01591    8.03060   10.68054
H     16.44190    7.07657   11.04863
C     15.76446    8.84816   11.92851
C     14.81934    6.48408    9.26638
H     14.03168    6.46766    8.49372
H     15.77872    6.34789    8.73644
C     14.53853    5.33379   10.18913
H     12.26915    9.65755    8.58379
H     16.60979    9.41964   12.36949
H     13.73267    4.74875   11.89416
H     11.13863    8.56109   10.28521
Br    17.38906    8.82563    9.58653
Br    15.01288    3.66676    9.60232
