54

O      7.09408   22.72948    6.38281
Fe     6.29117   22.28672    5.24067
P      6.10187   20.25801    6.31181
C      5.37111   18.96148    5.23831
C      4.35143   19.63752    4.34325
P      5.16958   21.12985    3.69104
C      3.91936   22.27874    3.05553
C      4.45808   23.67839    3.26684
N      5.11166   23.92809    4.57525
C      6.27509   20.59311    2.32394
C      7.70924   20.55602    2.82120
P      8.03848   22.12676    3.70667
C      9.64796   21.98901    4.50975
C      8.31089   23.32743    2.37510
H      3.98997   18.99256    3.52549
H      3.71769   22.09915    1.98706
H      2.98642   22.08845    3.60011
H      3.47411   19.97704    4.91806
H      6.15900   21.32457    1.50760
H      5.93610   19.61922    1.93466
H      8.42977   20.40632    1.99984
H      7.85912   19.73895    3.54451
H      9.11633   22.95263    1.72229
H      7.40415   23.47830    1.77381
H      8.62581   24.28941    2.80568
H     10.42677   21.75005    3.76801
H      9.87124   22.95403    4.98970
H      9.62144   21.22089    5.29218
H      5.22809   23.87134    2.50615
H      3.66402   24.42886    3.10817
C      4.15534   24.15583    5.67761
H      4.76532   24.45805    6.53707
H      3.51131   25.01680    5.42153
C      5.94413   25.15046    4.37377
H      6.65308   24.89551    3.57668
H      5.27442   25.92862    3.96182
H      4.93436   18.15602    5.85125
H      6.18775   18.51635    4.64731
C      5.09226   20.27513    7.81038
H      4.04019   20.47810    7.56897
H      5.17050   19.29151    8.30097
H      5.46722   21.05524    8.48595
C      7.71860   19.65613    6.83167
H      7.59700   18.72315    7.40544
H      8.34658   19.45923    5.95269
H      8.19298   20.42799    7.45472
C      6.68504   25.69799    5.56288
H      6.01636   26.09143    6.34128
H      7.35310   24.94876    6.00649
H      7.29412   26.54656    5.21475
C      3.33241   22.94848    6.05316
H      2.94484   23.06306    7.07581
H      2.47087   22.78308    5.39392
H      3.96705   22.04541    6.03480
