10

H 0.000000 0.000000 0.000000
H 0.000000 0.000000 2.733333
H 0.000000 0.000000 5.466667
H 0.000000 0.000000 8.200000
H 0.000000 0.000000 10.933333
H 0.000000 0.000000 13.666667
H 0.000000 0.000000 16.400000
H 0.000000 0.000000 19.133333
H 0.000000 0.000000 21.866667
H 0.000000 0.000000 24.600000
