33

O      6.92702   22.79307    7.15864
Fe     6.19371   21.63518    4.81245
N      5.95032   19.56517    5.35436
C      5.64239   18.68258    4.22107
C      4.47984   19.11783    3.34431
C      3.89883   21.65958    3.27364
C      4.39144   23.03520    2.84241
N      5.69466   23.30314    3.46358
C      5.82400   20.59873    1.71027
C      7.23103   20.56616    2.24951
N      7.53274   21.04861    3.43016
H      4.36663   18.30630    2.60707
H      2.82077   21.60530    3.04307
H      3.53432   19.08293    3.91393
H      5.75654   21.52942    1.12118
H      5.76904   19.80357    0.95023
H      4.42931   23.11658    1.74636
H      3.66246   23.78987    3.17764
H      5.42755   17.66291    4.58603
H      6.55599   18.60018    3.61549
C      4.54630   20.43653    2.55353
H      3.81274   20.28130    1.74592
H      6.82420   19.26301    5.79467
H      5.24908   19.46610    6.09341
H      8.52881   21.02040    3.65801
H      6.44381   23.37710    2.77565
H      5.69556   24.18753    3.97501
N      8.14619   20.07514    1.41225
H      9.13749   20.08550    1.63419
H      7.89123   19.72647    0.49465
N      4.08308   21.61044    4.72830
H      3.64933   22.41756    5.18525
H      3.62797   20.78887    5.12537
