17

O      0.00000    0.00000    1.61313
Fe     0.00000    0.00000   -0.01313
O     -0.02532   -2.04942   -0.05490
O      0.01885    2.04941   -0.05862
O     -2.09136   -0.00340   -0.20343
O      2.09172    0.00000   -0.19938
O      0.00000    0.00000   -2.06313
H      0.26040   -2.63210   -0.78052
H      0.04961   -2.57039    0.76524
H     -0.25655    2.63228   -0.78799
H     -0.05040    2.57471    0.75919
H     -2.58023    0.46315    0.50084
H     -2.52460   -0.87680   -0.24120
H      2.52747    0.87055   -0.26393
H      2.57839   -0.44571    0.51979
H     -0.77522    0.08407   -2.64375
H      0.77001   -0.10212   -2.64771
