45

O     -0.34433   -3.11162    0.59121
Fe    -0.21542   -2.20444    1.91023
N      1.89373   -2.33358    2.38392
N      0.29615   -0.31844    1.10295
N     -2.25237   -1.87646    2.51985
O     -0.15005   -2.05991    4.08934
C     -0.03267   -0.24045   -0.32811
C      1.75336   -0.15330    1.29973
C      2.24169   -0.90591    2.51532
C      2.69812   -2.98914    1.34563
C     -0.43848    0.70544    1.88242
C     -1.94588    0.55605    1.92410
C     -2.48619   -0.46721    2.89627
C     -3.13606   -2.29291    1.42032
C      1.08353   -2.40524    4.69874
C      1.88910   -3.09744    3.62860
C     -1.36115   -2.43872    4.74520
C     -2.35837   -2.78439    3.65684
H     -2.95054   -3.34705    1.18169
H     -4.18875   -2.16132    1.71696
H     -2.92625   -1.69065    0.52951
H      0.24301    0.75011   -0.72803
H      0.50654   -1.02797   -0.86787
H     -1.10560   -0.40064   -0.48052
H      2.00268    0.91650    1.39980
H      2.26041   -0.50678    0.39364
H      2.54405   -2.49124    0.38311
H      3.76737   -2.95742    1.61411
H      2.37452   -4.03076    1.24267
H      1.76093   -0.50003    3.41372
H      3.33102   -0.77235    2.63506
H      2.90195   -3.37123    3.97237
H     -1.20068   -3.32890    5.37170
H     -1.70983   -1.61302    5.38572
H     -2.16969   -3.80054    3.27556
H     -2.02837   -0.29847    3.87927
H     -3.57295   -0.33249    3.02610
H     -2.34019    1.52849    2.26067
H     -2.36822    0.42677    0.91727
H     -0.03894    0.69255    2.90865
H     -0.18137    1.68945    1.45008
H      1.58330   -1.49760    5.07814
H      0.93739   -3.08492    5.55137
Br     0.95210   -4.77530    3.26401
Br    -4.10924   -2.84545    4.46398
