24

O     -0.18424    0.65210   -2.65283
N      2.19998    0.33977   -1.11271
H      2.47041    0.34524   -2.10072
H      2.59489   -0.50899   -0.69678
Fe     0.07530    0.34100   -1.01533
H      2.67526    1.12388   -0.65950
P      0.27629    3.03788   -0.55478
H      1.11728    3.57301   -1.56651
H     -0.87528    3.83357   -0.80306
H      0.79082    3.72520    0.58078
P     -0.20068   -2.18094   -1.32815
H     -0.75509   -2.53322   -2.58381
H      0.94590   -3.01171   -1.28481
H     -1.05685   -2.89094   -0.44426
P     -2.19205    0.75998   -0.61490
H     -2.80329    1.59681   -1.59440
H     -2.97408   -0.41819   -0.71730
P      0.09696   -0.17292    1.32574
H      0.12807    0.86199    2.29776
H     -0.98727   -0.94526    1.81449
N     -2.50156    1.24694    0.96756
H     -2.16826    2.17966    1.20990
H     -3.45413    1.11582    1.31701
Br     1.81336   -1.39656    1.85968
