19

O      0.64032   -0.17342   -1.79455
O     -0.00758   -2.16524   -0.24712
O      0.55533    2.02271   -0.34449
P      2.76274   -0.41245   -0.06695
P     -2.22553    0.28254   -0.92454
O     -0.19929    0.04417    1.85116
H     -0.58196   -2.57641    0.41625
H     -0.11029   -2.68808   -1.05776
H      0.70116    2.47193    0.50204
H      1.19337    2.41049   -0.96589
H      3.31321   -1.47949   -0.82638
H     -2.38730    1.24743   -1.95659
H      0.37968   -0.22737    2.57891
H     -1.02912    0.31306    2.27257
Fe     0.28690   -0.07853   -0.50192
H      3.36023   -0.68264    1.19837
H     -3.31886    0.66526   -0.09332
Br    -2.95938   -1.53617   -1.85346
Br     3.87405    1.31489   -0.75109
