52

O      7.72845   23.38753    6.31068
Fe     6.02084   21.87077    4.65971
N      5.67316   20.14088    5.78037
C      5.41731   18.96679    4.91362
C      4.34656   19.24339    3.87362
P      4.75668   20.86202    3.17609
C      3.36296   21.94396    2.78552
C      3.93964   23.33737    2.94745
N      4.68437   23.50205    4.21965
C      5.79324   20.57911    1.65285
C      7.20790   20.40299    2.19374
N      7.56398   21.38529    3.22792
C      8.80589   20.98370    3.89883
C      7.73950   22.71750    2.63995
H      4.32470   18.48306    3.07639
H      2.99149   21.77102    1.76204
H      2.53021   21.74113    3.47618
H      3.33574   19.28224    4.30775
H      5.71925   21.52964    1.09897
H      7.93749   20.44733    1.36486
H      7.29223   19.40110    2.64053
H      8.53643   22.70434    1.87530
H      6.80541   23.04416    2.16617
H      8.01463   23.42267    3.43493
H      9.64899   20.99833    3.18677
H      9.00460   21.67677    4.72602
H      8.69985   19.96344    4.28700
H      4.64814   23.54572    2.13175
H      3.14893   24.10622    2.88369
C      3.75935   23.50312    5.35963
H      4.33311   23.60795    6.28874
H      3.05372   24.34859    5.28166
H      3.18484   22.57117    5.38764
C      5.39790   24.78925    4.19558
H      5.98938   24.89123    5.11225
H      6.07140   24.82942    3.33278
H      4.67291   25.61722    4.11877
H      5.12933   18.12271    5.56400
H      6.36942   18.70284    4.43406
C      4.45594   20.39827    6.64987
H      3.65198   20.68376    5.95780
H      4.72674   21.28549    7.24168
C      6.81289   19.84610    6.66153
H      6.58937   18.95244    7.26573
H      7.70997   19.65807    6.06366
H      6.99978   20.70428    7.31647
N      5.28352   19.51974    0.86195
H      5.19877   19.72933   -0.12803
H      5.75821   18.63055    0.98844
N      4.10409   19.28259    7.42420
H      3.17959   18.89963    7.26634
H      4.31397   19.33689    8.41452
