36

O      7.73335   22.61696    6.81270
Fe     6.07556   21.75635    5.03912
N      5.30223   20.05290    5.81419
C      5.51513   19.05274    4.73823
C      4.53018   19.25346    3.59155
C      3.65959   21.77082    2.99738
C      4.38830   23.09712    3.21376
N      4.86081   23.32102    4.59269
C      5.65463   20.68107    1.71480
C      7.05330   20.68000    2.26990
O      7.21150   21.61482    3.37290
H      4.70832   18.38741    2.93457
H      3.13473   21.98925    2.05189
H      3.52472   19.07240    4.00469
H      5.49320   21.59433    1.12042
H      5.67498   19.86605    0.97090
H      7.76449   20.98675    1.48571
H      7.35570   19.68086    2.62587
H      5.25693   23.19723    2.54724
H      3.69066   23.91124    2.95104
H      6.55666   19.19911    4.39827
C      4.43965   20.45803    2.62817
H      3.70579   20.02959    1.92656
H      5.82020   19.78833    6.65896
H      4.31331   20.07043    6.08468
H      8.14923   21.83885    3.48767
H      5.35929   24.21347    4.67297
H      4.06652   23.39127    5.23785
C      2.56912   21.55645    4.03170
H      1.91627   22.44091    4.10636
H      1.92440   20.70678    3.76348
H      2.96600   21.35359    5.04032
C      5.41103   17.64625    5.30367
H      5.64917   16.90476    4.52678
H      6.11583   17.49655    6.13680
H      4.38836   17.44776    5.66309
