29

O     -2.52273    2.14779    2.01439
Fe    -2.35933    2.19321   -0.02909
N     -3.61283    3.85852   -0.34028
O     -1.93534    1.69862   -2.01175
N     -0.26989    2.48594    0.04838
O     -3.62537    0.54470   -0.08132
C     -4.86105    3.63635    0.40765
H     -5.52996    4.50537    0.28610
H     -5.36613    2.74024    0.02180
H     -4.62871    3.49778    1.47039
C     -2.86586    5.00126    0.20664
H     -1.93612    5.14869   -0.36213
H     -3.46905    5.92274    0.12987
H     -2.63188    4.81217    1.26271
C     -3.89910    4.05224   -1.76677
H     -4.44092    3.17878   -2.15830
H     -4.54009    4.94005   -1.90782
H     -2.96470    4.21258   -2.32262
H     -1.31125    1.00478   -2.27108
H     -2.51814    1.81556   -2.77573
H      0.13598    2.27875    0.96843
H     -3.86299    0.33947    0.83701
C      0.56293    2.97675   -0.78737
H      1.62310    3.14641   -0.53133
H      0.22316    3.24187   -1.79979
C     -3.80354   -0.61620   -0.90552
H     -3.06435   -1.39449   -0.65098
H     -4.82502   -1.00721   -0.77082
H     -3.67482   -0.30276   -1.94849
