20

O      0.25180   -0.29962   -2.04906
N     -0.21889   -2.15248    0.13566
O      0.42194    2.04291   -0.36005
N      2.29334   -0.37511    0.03037
N     -2.07632    0.24138   -0.39780
O     -0.02537    0.37045    1.79796
H      0.49652   -2.53504    0.76176
H     -0.22230   -2.74386   -0.70082
H      0.42189    2.59779    0.43432
H      0.57429    2.62418   -1.11957
H      2.79194    0.52507    0.02532
H      2.70941   -0.92910   -0.73049
H     -2.29844    1.24320   -0.47458
H     -2.47332   -0.19810   -1.23932
H      0.65621    0.06580    2.41764
H     -0.87059    0.28213    2.26615
Fe     0.12232   -0.09153   -0.35968
H     -1.11694   -2.30464    0.60525
Cl    -3.01078   -0.35147    0.93746
Cl     2.75479   -1.16524    1.50374
