24

O     -0.19668    0.66700   -2.73127
N      2.21242    0.32487   -1.03427
H      2.48285    0.33034   -2.02228
H      2.60733   -0.52389   -0.61834
Fe     0.08774    0.32610   -0.93689
H      2.68770    1.10898   -0.58106
P      0.27629    3.03788   -0.55478
H      1.11728    3.57301   -1.56651
H     -0.87528    3.83357   -0.80306
H      0.79082    3.72520    0.58078
P     -0.20068   -2.18094   -1.32815
H     -0.75509   -2.53322   -2.58381
H      0.94590   -3.01171   -1.28481
H     -1.05685   -2.89094   -0.44426
P     -2.17961    0.74508   -0.53646
H     -2.79085    1.58191   -1.51596
H     -2.96164   -0.43309   -0.63886
P      0.10940   -0.18782    1.40418
H      0.14051    0.84709    2.37620
H     -0.97483   -0.96016    1.89293
N     -2.48912    1.23204    1.04600
H     -2.15582    2.16476    1.28834
H     -3.44169    1.10092    1.39545
Br     1.82580   -1.41146    1.93812
