22

O      0.58217   -0.09449   -2.45395
O     -0.13176   -2.17943   -0.07121
O      0.10773    2.16127   -0.26153
P      2.23641   -0.27696    0.48505
O     -2.17538   -0.03435   -0.29781
O     -0.64106    0.01076    1.68341
H     -0.22828   -2.85443   -0.76923
H      0.53141    2.57598    0.50515
H      0.36283    2.70154   -1.02613
H      3.14652    0.76911    0.18537
H      2.87879   -1.37148   -0.14480
H     -2.75119    0.35106   -0.97294
H     -2.45642    0.29632    0.65724
H     -0.79213   -1.01458    1.66698
Fe    -0.13515    0.06208   -0.26044
H      2.54486   -0.52012    1.84895
N     -0.93253   -2.47185    1.03290
H     -1.88513   -2.68965    0.71559
H     -0.54582   -3.29455    1.51254
N     -1.94509    0.54948    1.82075
H     -2.37163    0.13016    2.65796
H     -1.79979    1.53586    2.06131
