18

O      0.66768   -0.08523   -2.00527
O     -0.25165   -2.08629   -0.27425
O      0.48043    2.06514   -0.22876
N      2.31723   -0.40216    0.07036
O     -1.87800    0.34074   -0.54394
O     -0.33312    0.05252    1.71435
H     -0.47511   -2.50595    0.57662
H      0.40118    2.52084    0.62913
H      2.91241    0.33371   -0.32394
H      2.63519   -1.27170   -0.37011
H     -2.16696    1.17628   -0.94383
H     -2.43112   -0.34195   -0.95570
H      0.09815   -0.02801    2.57767
H     -1.27174    0.21562    1.89506
Fe     0.29105   -0.03798   -0.48632
H      2.56207   -0.47296    1.06190
Br     1.28995    3.26509   -1.38653
Br     0.15121   -3.46520   -1.44593
