20

O      0.22958   -0.26391   -1.75917
N     -0.19667   -2.18819   -0.15423
O      0.42194    2.04291   -0.36005
N      2.29334   -0.37511    0.03037
N     -2.07632    0.24138   -0.39780
O     -0.02537    0.37045    1.79796
H      0.51874   -2.57075    0.47187
H     -0.20008   -2.77957   -0.99071
H      0.42189    2.59779    0.43432
H      0.57429    2.62418   -1.11957
H      2.79194    0.52507    0.02532
H      2.70941   -0.92910   -0.73049
H     -2.29844    1.24320   -0.47458
H     -2.47332   -0.19810   -1.23932
H      0.65621    0.06580    2.41764
H     -0.87059    0.28213    2.26615
Fe     0.14454   -0.12724   -0.64957
H     -1.09472   -2.34035    0.31536
Cl    -3.01078   -0.35147    0.93746
Cl     2.75479   -1.16524    1.50374
