22

O      0.48474   -0.25942   -2.37389
O     -0.66709   -2.13712   -0.38183
O     -0.27433    1.87485    0.09086
P      2.13163   -0.56028    0.16181
O     -2.35339    0.11938   -0.75358
O     -0.76755   -0.13725    1.74867
H     -0.72924   -2.43266    0.54358
H     -0.75221    1.93797    1.00414
H      0.12659    2.70855   -0.18885
H      3.05454    0.32112   -0.45384
H      2.56823   -1.82474   -0.30283
H     -2.71514    0.87660   -1.24004
H     -2.86977   -0.64808   -1.04523
H      0.06134   -0.08743    2.25404
Fe    -0.23191   -0.05991   -0.48479
H      2.62649   -0.57783    1.49416
N      0.19404   -3.08776   -1.01502
H     -0.43151   -3.85283   -1.30283
H      0.44633   -2.60182   -1.88377
N     -1.42320    1.10119    2.01296
H     -2.39675    0.90660    1.75224
H     -1.43649    1.24044    3.03273
