33

O      6.78526   22.56924    6.70510
Fe     6.33547   21.85901    5.26599
N      6.09208   19.78900    5.80790
C      5.78415   18.90641    4.67461
C      4.62160   19.34166    3.79785
C      4.04059   21.88341    3.72718
C      4.53320   23.25903    3.29595
N      5.83642   23.52697    3.91712
C      5.96576   20.82256    2.16381
C      7.37279   20.78999    2.70305
N      7.67450   21.27244    3.88370
H      4.50839   18.53013    3.06061
H      2.96253   21.82913    3.49661
H      3.67608   19.30676    4.36747
H      5.89830   21.75325    1.57472
H      5.91080   20.02740    1.40377
H      4.57107   23.34041    2.19990
H      3.80422   24.01370    3.63118
H      5.56931   17.88674    5.03957
H      6.69775   18.82401    4.06903
C      4.68806   20.66036    3.00707
H      3.95450   20.50513    2.19946
H      6.96596   19.48684    6.24821
H      5.39084   19.68993    6.54695
H      8.67057   21.24423    4.11155
H      6.58557   23.60093    3.22919
H      5.83732   24.41136    4.42855
N      8.28795   20.29897    1.86579
H      9.27925   20.30933    2.08773
H      8.03299   19.95030    0.94819
N      4.22484   21.83427    5.18184
H      3.79109   22.64139    5.63879
H      3.76973   21.01270    5.57891
