29

O     12.25229    7.26497   12.81605
Fe    13.03987    7.44279   12.00925
N     14.50828    7.70638   10.28429
N     11.90139    8.22466   10.48362
O     14.59149    8.53510   12.85789
N     13.60732    5.51259   11.57907
C     13.99163    8.82466    9.46535
H     14.34008    8.72273    8.41965
C     12.49444    8.77623    9.49286
C     15.80288    7.93357   10.91274
H     16.26829    6.95688   11.14081
H     16.52622    8.45444   10.26279
C     15.67595    8.59862   12.26140
C     14.47243    6.44013    9.54981
H     13.68259    6.47328    8.77602
H     15.40842    6.24429    8.99343
C     14.12952    5.29149   10.43200
H     11.93894    9.28642    8.68784
H     14.30379    4.26958   10.05255
H     13.34863    4.68736   12.12968
H     10.87764    8.27827   10.49246
C     14.38593   10.21356    9.95511
H     14.05390   10.38850   10.98807
H     15.46935   10.37410    9.87020
H     13.90811   10.97331    9.31760
C     16.84915    9.26384   12.84771
H     16.72990    9.40562   13.93042
H     17.78092    8.72623   12.60689
H     16.94044   10.25945   12.37095
