29

O     -2.50341    2.15316    1.77280
Fe    -2.37865    2.18784    0.21250
N     -3.63215    3.85315   -0.09869
O     -1.93534    1.69862   -2.01175
N     -0.28921    2.48057    0.28997
O     -3.64469    0.53933    0.16027
C     -4.88037    3.63098    0.64924
H     -5.54928    4.50000    0.52769
H     -5.38545    2.73487    0.26339
H     -4.64803    3.49241    1.71198
C     -2.88518    4.99589    0.44823
H     -1.95544    5.14332   -0.12054
H     -3.48837    5.91737    0.37146
H     -2.65120    4.80680    1.50430
C     -3.91842    4.04687   -1.52518
H     -4.46024    3.17341   -1.91671
H     -4.55941    4.93468   -1.66623
H     -2.98402    4.20721   -2.08103
H     -1.31125    1.00478   -2.27108
H     -2.51814    1.81556   -2.77573
H      0.11666    2.27338    1.21002
H     -3.88231    0.33410    1.07860
C      0.54361    2.97138   -0.54578
H      1.60378    3.14104   -0.28974
H      0.20384    3.23650   -1.55820
C     -3.82286   -0.62157   -0.66393
H     -3.08367   -1.39986   -0.40939
H     -4.84434   -1.01258   -0.52923
H     -3.69414   -0.30813   -1.70690
