53

O      5.80571   23.26574    7.58933
Fe     6.46790   22.31680    5.13087
P      6.13044   20.16462    5.65884
C      5.89494   18.88115    4.38373
C      4.82779   19.05701    3.30678
C      4.32082   21.52850    3.26553
C      4.55454   22.92972    2.70317
P      5.18660   23.87336    4.12555
C      6.01592   20.52242    1.55905
C      7.39910   20.60534    2.17617
P      7.77259   21.95478    3.33978
C      9.37953   21.47392    4.03848
C      8.20538   23.36040    2.27646
H      4.92360   18.19290    2.62975
H      5.08231   21.49740    4.16876
H      3.84634   18.92312    3.78758
H      5.85206   21.38847    0.89858
H      6.04123   19.66274    0.86898
H      8.14857   20.71696    1.37325
H      7.66577   19.67769    2.69654
H      9.03779   23.06924    1.61602
H      7.35428   23.66548    1.65322
H      8.52444   24.20946    2.89843
H     10.11030   21.29699    3.23245
H      9.75751   22.27824    4.68903
H      9.26247   20.55799    4.63441
H      5.34566   22.91845    1.94314
H      3.65454   23.36443    2.23828
C      3.77812   24.17577    5.21114
H      4.14190   24.73489    6.08588
H      3.00563   24.75963    4.68525
H      3.36593   23.22048    5.56160
C      5.72508   25.51070    3.59838
H      6.12935   26.04368    4.47359
H      6.49518   25.45709    2.82010
H      4.85354   26.06733    3.21616
H      5.63473   17.98246    4.97209
H      6.88684   18.66248    3.96478
C      4.46401   20.22379    6.55786
H      3.77073   20.69401    5.83892
H      4.18351   19.15872    6.64915
C      7.24927   19.41283    6.86226
H      6.86207   18.42466    7.16047
H      8.25952   19.29505    6.44509
H      7.30332   20.07002    7.74035
C      4.79051   20.32186    2.44272
H      3.96520   20.15797    1.72528
N      4.44891   20.86810    7.79814
H      4.68996   21.85940    7.75481
H      4.92581   20.38698    8.55479
N      3.02463   21.37191    3.78034
H      2.38751   22.15033    3.66243
H      2.57183   20.47930    3.61917
