54

O      7.09962   22.73254    6.39069
Fe     6.28563   22.28366    5.23279
P      6.09633   20.25495    6.30393
C      5.36557   18.95842    5.23043
C      4.34589   19.63446    4.33537
P      5.16404   21.12679    3.68316
C      3.91382   22.27568    3.04765
C      4.45254   23.67533    3.25896
N      5.10612   23.92503    4.56737
C      6.26955   20.59005    2.31606
C      7.70370   20.55296    2.81332
P      8.03294   22.12370    3.69879
C      9.64242   21.98595    4.50187
C      8.30535   23.32437    2.36722
H      3.98443   18.98950    3.51761
H      3.71215   22.09609    1.97918
H      2.98088   22.08539    3.59223
H      3.46857   19.97398    4.91018
H      6.15346   21.32151    1.49972
H      5.93056   19.61616    1.92678
H      8.42423   20.40326    1.99196
H      7.85358   19.73589    3.53663
H      9.11079   22.94957    1.71441
H      7.39861   23.47524    1.76593
H      8.62027   24.28635    2.79780
H     10.42123   21.74699    3.76013
H      9.86570   22.95097    4.98182
H      9.61590   21.21783    5.28430
H      5.22255   23.86828    2.49827
H      3.65848   24.42580    3.10029
C      4.14980   24.15277    5.66973
H      4.75978   24.45499    6.52919
H      3.50577   25.01374    5.41365
C      5.93859   25.14740    4.36589
H      6.64754   24.89245    3.56880
H      5.26888   25.92556    3.95394
H      4.92882   18.15296    5.84337
H      6.18221   18.51329    4.63943
C      5.08672   20.27207    7.80250
H      4.03465   20.47504    7.56109
H      5.16496   19.28845    8.29309
H      5.46168   21.05218    8.47807
C      7.71306   19.65307    6.82379
H      7.59146   18.72009    7.39756
H      8.34104   19.45617    5.94481
H      8.18744   20.42493    7.44684
C      6.67950   25.69493    5.55500
H      6.01082   26.08837    6.33340
H      7.34756   24.94570    5.99861
H      7.28858   26.54350    5.20687
C      3.32687   22.94542    6.04528
H      2.93930   23.06000    7.06793
H      2.46533   22.78002    5.38604
H      3.96151   22.04235    6.02692
