53

O      5.99033   23.00116    6.90389
Fe     6.28328   22.58138    5.81631
P      5.94582   20.42920    6.34428
C      5.71032   19.14573    5.06917
C      4.64317   19.32159    3.99222
C      4.13620   21.79308    3.95097
C      4.36992   23.19430    3.38861
P      5.00198   24.13794    4.81099
C      5.83130   20.78700    2.24449
C      7.21448   20.86992    2.86161
P      7.58797   22.21936    4.02522
C      9.19491   21.73850    4.72392
C      8.02076   23.62498    2.96190
H      4.73898   18.45748    3.31519
H      4.89769   21.76198    4.85420
H      3.66172   19.18770    4.47302
H      5.66744   21.65305    1.58402
H      5.85661   19.92732    1.55442
H      7.96395   20.98154    2.05869
H      7.48115   19.94227    3.38198
H      8.85317   23.33382    2.30146
H      7.16966   23.93006    2.33866
H      8.33982   24.47404    3.58387
H      9.92568   21.56157    3.91789
H      9.57289   22.54282    5.37447
H      9.07785   20.82257    5.31985
H      5.16104   23.18303    2.62858
H      3.46992   23.62901    2.92372
C      3.59350   24.44035    5.89658
H      3.95728   24.99947    6.77132
H      2.82101   25.02421    5.37069
H      3.18131   23.48506    6.24704
C      5.54046   25.77528    4.28382
H      5.94473   26.30826    5.15903
H      6.31056   25.72167    3.50554
H      4.66892   26.33191    3.90160
H      5.45011   18.24704    5.65753
H      6.70222   18.92706    4.65022
C      4.27939   20.48837    7.24330
H      3.58611   20.95859    6.52436
H      3.99889   19.42330    7.33459
C      7.06465   19.67741    7.54770
H      6.67745   18.68924    7.84591
H      8.07490   19.55963    7.13053
H      7.11870   20.33460    8.42579
C      4.60589   20.58644    3.12816
H      3.78058   20.42255    2.41072
N      4.26429   21.13268    8.48358
H      4.50534   22.12398    8.44025
H      4.74119   20.65156    9.24023
N      2.84001   21.63649    4.46578
H      2.20289   22.41491    4.34787
H      2.38721   20.74388    4.30461
