23

O      0.41760    0.01954   -2.50119
O     -0.34171   -2.14590   -0.36927
O      0.07797    2.13762   -0.25050
P      2.17925   -0.05689    0.58768
N     -2.37582    0.33440   -0.27405
O     -0.50235   -0.00774    1.78455
H     -0.29125   -2.72988    0.40104
H     -0.04963   -2.67424   -1.12796
H      0.21245    2.33993    0.69112
H      3.06382    0.02350   -0.51911
H      2.63922   -1.25273    1.19455
H     -2.79668    0.98874    0.39170
H     -2.55423    0.74298   -1.19682
H     -1.32007   -0.07150    2.31196
Fe    -0.24119   -0.02246   -0.11611
H      2.71581    0.93059    1.44297
H     -2.94162   -0.51934   -0.23681
N      0.63723   -0.17022    2.58810
H      0.63611    0.57358    3.29585
H      0.55295   -1.05986    3.09300
N      1.30087    2.56617   -0.86762
H      1.15845    3.56836   -1.05404
H      1.24400    2.10899   -1.78554
