23

O      0.42114   -0.61283   -2.53947
O     -0.71057   -2.09684    0.57371
O      0.18933    2.08207   -0.28257
P      2.30972   -0.55754    0.05634
N     -2.40073    0.38694   -0.12056
O     -0.47882    0.27163    1.69224
H     -1.15376   -2.50673    1.33075
H     -0.58793   -2.78614   -0.09613
H      3.16724    0.33118   -0.64201
H      2.77127   -1.79303   -0.46383
H     -2.58552    1.12136   -0.80913
H     -2.91418   -0.43576   -0.45035
H     -0.05123   -0.17854    2.43422
H     -0.23636    1.24145    1.77340
Fe    -0.30237   -0.05977    0.12751
H      2.94239   -0.56589    1.32942
H     -2.85141    0.67494    0.75275
N      0.24389    2.71179    0.98275
H      1.19077    3.09130    1.11489
H     -0.41483    3.50186    0.97497
N      0.49817    2.81617   -1.41346
H     -0.13512    3.62353   -1.46170
H      1.46051    3.16516   -1.32741
