53

O      5.78847   23.29043    7.65331
Fe     6.48514   22.29211    5.06689
P      6.14768   20.13993    5.59486
C      5.91218   18.85646    4.31975
C      4.84503   19.03232    3.24280
C      4.33806   21.50381    3.20155
C      4.57178   22.90503    2.63919
P      5.20384   23.84867    4.06157
C      6.03316   20.49773    1.49507
C      7.41634   20.58065    2.11219
P      7.78983   21.93009    3.27580
C      9.39677   21.44923    3.97450
C      8.22262   23.33571    2.21248
H      4.94084   18.16821    2.56577
H      5.09955   21.47271    4.10478
H      3.86358   18.89843    3.72360
H      5.86930   21.36378    0.83460
H      6.05847   19.63805    0.80500
H      8.16581   20.69227    1.30927
H      7.68301   19.65300    2.63256
H      9.05503   23.04455    1.55204
H      7.37152   23.64079    1.58924
H      8.54168   24.18477    2.83445
H     10.12754   21.27230    3.16847
H      9.77475   22.25355    4.62505
H      9.27971   20.53330    4.57043
H      5.36290   22.89376    1.87916
H      3.67178   23.33974    2.17430
C      3.79536   24.15108    5.14716
H      4.15914   24.71020    6.02190
H      3.02287   24.73494    4.62127
H      3.38317   23.19579    5.49762
C      5.74232   25.48601    3.53440
H      6.14659   26.01899    4.40961
H      6.51242   25.43240    2.75612
H      4.87078   26.04264    3.15218
H      5.65197   17.95777    4.90811
H      6.90408   18.63779    3.90080
C      4.48125   20.19910    6.49388
H      3.78797   20.66932    5.77494
H      4.20075   19.13403    6.58517
C      7.26651   19.38814    6.79828
H      6.87931   18.39997    7.09649
H      8.27676   19.27036    6.38111
H      7.32056   20.04533    7.67637
C      4.80775   20.29717    2.37874
H      3.98244   20.13328    1.66130
N      4.46615   20.84341    7.73416
H      4.70720   21.83471    7.69083
H      4.94305   20.36229    8.49081
N      3.04187   21.34722    3.71636
H      2.40475   22.12564    3.59845
H      2.58907   20.45461    3.55519
