53

O      5.88202   23.15638    7.30601
Fe     6.39159   22.42616    5.41419
P      6.05413   20.27398    5.94216
C      5.81863   18.99051    4.66705
C      4.75148   19.16637    3.59010
C      4.24451   21.63786    3.54885
C      4.47823   23.03908    2.98649
P      5.11029   23.98272    4.40887
C      5.93961   20.63178    1.84237
C      7.32279   20.71470    2.45949
P      7.69628   22.06414    3.62310
C      9.30322   21.58328    4.32180
C      8.12907   23.46976    2.55978
H      4.84729   18.30226    2.91307
H      5.00600   21.60676    4.45208
H      3.77003   19.03248    4.07090
H      5.77575   21.49783    1.18190
H      5.96492   19.77210    1.15230
H      8.07226   20.82632    1.65657
H      7.58946   19.78705    2.97986
H      8.96148   23.17860    1.89934
H      7.27797   23.77484    1.93654
H      8.44813   24.31882    3.18175
H     10.03399   21.40635    3.51577
H      9.68120   22.38760    4.97235
H      9.18616   20.66735    4.91773
H      5.26935   23.02781    2.22646
H      3.57823   23.47379    2.52160
C      3.70181   24.28513    5.49446
H      4.06559   24.84425    6.36920
H      2.92932   24.86899    4.96857
H      3.28962   23.32984    5.84492
C      5.64877   25.62006    3.88170
H      6.05304   26.15304    4.75691
H      6.41887   25.56645    3.10342
H      4.77723   26.17669    3.49948
H      5.55842   18.09182    5.25541
H      6.81053   18.77184    4.24810
C      4.38770   20.33315    6.84118
H      3.69442   20.80337    6.12224
H      4.10720   19.26808    6.93247
C      7.17296   19.52219    7.14558
H      6.78576   18.53402    7.44379
H      8.18321   19.40441    6.72841
H      7.22701   20.17938    8.02367
C      4.71420   20.43122    2.72604
H      3.88889   20.26733    2.00860
N      4.37260   20.97746    8.08146
H      4.61365   21.96876    8.03813
H      4.84950   20.49634    8.83811
N      2.94832   21.48127    4.06366
H      2.31120   22.25969    3.94575
H      2.49552   20.58866    3.90249
