23

O      0.24221   -0.47605   -1.87989
O     -0.53164   -2.23362   -0.08587
O      0.18933    2.08207   -0.28257
P      2.30972   -0.55754    0.05634
N     -2.22180    0.25016   -0.78014
O     -0.47882    0.27163    1.69224
H     -0.97483   -2.64351    0.67117
H     -0.40900   -2.92292   -0.75571
H      3.16724    0.33118   -0.64201
H      2.77127   -1.79303   -0.46383
H     -2.40659    0.98458   -1.46871
H     -2.73525   -0.57254   -1.10993
H     -0.05123   -0.17854    2.43422
H     -0.23636    1.24145    1.77340
Fe    -0.12344   -0.19655   -0.53207
H      2.94239   -0.56589    1.32942
H     -2.67248    0.53816    0.09317
N      0.24389    2.71179    0.98275
H      1.19077    3.09130    1.11489
H     -0.41483    3.50186    0.97497
N      0.49817    2.81617   -1.41346
H     -0.13512    3.62353   -1.46170
H      1.46051    3.16516   -1.32741
