29

O     11.98048    7.20359   13.09451
Fe    13.31168    7.50417   11.73079
N     14.78009    7.76776   10.00583
N     12.17320    8.28604   10.20516
O     14.86330    8.59648   12.57943
N     13.87913    5.57397   11.30061
C     14.26344    8.88604    9.18689
H     14.61189    8.78411    8.14119
C     12.76625    8.83761    9.21440
C     16.07469    7.99495   10.63428
H     16.54010    7.01826   10.86235
H     16.79803    8.51582    9.98433
C     15.94776    8.66000   11.98294
C     14.74424    6.50151    9.27135
H     13.95440    6.53466    8.49756
H     15.68023    6.30567    8.71497
C     14.40133    5.35287   10.15354
H     12.21075    9.34780    8.40938
H     14.57560    4.33096    9.77409
H     13.62044    4.74874   11.85122
H     11.14945    8.33965   10.21400
C     14.65774   10.27494    9.67665
H     14.32571   10.44988   10.70961
H     15.74116   10.43548    9.59174
H     14.17992   11.03469    9.03914
C     17.12096    9.32522   12.56925
H     17.00171    9.46700   13.65196
H     18.05273    8.78761   12.32843
H     17.21225   10.32083   12.09249
