16

H 0.000000 0.000000 0.000000
H 0.000000 0.000000 2.006061
H 0.000000 0.000000 4.012121
H 0.000000 0.000000 6.018182
H 0.000000 0.000000 8.024242
H 0.000000 0.000000 10.030303
H 0.000000 0.000000 12.036364
H 0.000000 0.000000 14.042424
H 0.000000 0.000000 16.048485
H 0.000000 0.000000 18.054545
H 0.000000 0.000000 20.060606
H 0.000000 0.000000 22.066667
H 0.000000 0.000000 24.072727
H 0.000000 0.000000 26.078788
H 0.000000 0.000000 28.084848
H 0.000000 0.000000 30.090909
