52

O      7.51423   23.19725    6.10357
Fe     6.23506   22.06105    4.86682
N      5.88738   20.33116    5.98748
C      5.63153   19.15707    5.12073
C      4.56078   19.43367    4.08073
P      4.97090   21.05230    3.38320
C      3.57718   22.13424    2.99263
C      4.15386   23.52765    3.15456
N      4.89859   23.69233    4.42676
C      6.00746   20.76939    1.85996
C      7.42212   20.59327    2.40085
N      7.77820   21.57557    3.43503
C      9.02011   21.17398    4.10594
C      7.95372   22.90778    2.84706
H      4.53892   18.67334    3.28350
H      3.20571   21.96130    1.96915
H      2.74443   21.93141    3.68329
H      3.54996   19.47252    4.51486
H      5.93347   21.71992    1.30608
H      8.15171   20.63761    1.57197
H      7.50645   19.59138    2.84764
H      8.75065   22.89462    2.08241
H      7.01963   23.23444    2.37328
H      8.22885   23.61295    3.64204
H      9.86321   21.18861    3.39388
H      9.21882   21.86705    4.93313
H      8.91407   20.15372    4.49411
H      4.86236   23.73600    2.33886
H      3.36315   24.29650    3.09080
C      3.97357   23.69340    5.56674
H      4.54733   23.79823    6.49585
H      3.26794   24.53887    5.48877
H      3.39906   22.76145    5.59475
C      5.61212   24.97953    4.40269
H      6.20360   25.08151    5.31936
H      6.28562   25.01970    3.53989
H      4.88713   25.80750    4.32588
H      5.34355   18.31299    5.77111
H      6.58364   18.89312    4.64117
C      4.67016   20.58855    6.85698
H      3.86620   20.87404    6.16491
H      4.94096   21.47577    7.44879
C      7.02711   20.03638    6.86864
H      6.80359   19.14272    7.47284
H      7.92419   19.84835    6.27077
H      7.21400   20.89456    7.52358
N      5.49774   19.71002    1.06906
H      5.41299   19.91961    0.07908
H      5.97243   18.82083    1.19555
N      4.31831   19.47287    7.63131
H      3.39381   19.08991    7.47345
H      4.52819   19.52717    8.62163
