23

O      0.26164    0.00960   -1.93656
O     -0.34171   -2.14590   -0.36927
O      0.07797    2.13762   -0.25050
P      2.33521   -0.04695    0.02305
N     -2.21986    0.34434   -0.83868
O     -0.50235   -0.00774    1.78455
H     -0.29125   -2.72988    0.40104
H     -0.04963   -2.67424   -1.12796
H      0.21245    2.33993    0.69112
H      3.21978    0.03344   -1.08374
H      2.79518   -1.24279    0.62992
H     -2.64072    0.99868   -0.17293
H     -2.39827    0.75292   -1.76145
H     -1.32007   -0.07150    2.31196
Fe    -0.08523   -0.01252   -0.68074
H      2.87177    0.94053    0.87834
H     -2.78566   -0.50940   -0.80144
N      0.63723   -0.17022    2.58810
H      0.63611    0.57358    3.29585
H      0.55295   -1.05986    3.09300
N      1.30087    2.56617   -0.86762
H      1.15845    3.56836   -1.05404
H      1.24400    2.10899   -1.78554
