22

O      0.52892   -0.08287   -2.29112
O     -0.13176   -2.17943   -0.07121
O      0.10773    2.16127   -0.26153
P      2.28966   -0.28858    0.32222
O     -2.12213   -0.04597   -0.46064
O     -0.64106    0.01076    1.68341
H     -0.22828   -2.85443   -0.76923
H      0.53141    2.57598    0.50515
H      0.36283    2.70154   -1.02613
H      3.19977    0.75749    0.02254
H      2.93204   -1.38310   -0.30763
H     -2.69794    0.33944   -1.13577
H     -2.40317    0.28470    0.49441
H     -0.79213   -1.01458    1.66698
Fe    -0.08190    0.05046   -0.42327
H      2.59811   -0.53174    1.68612
N     -0.93253   -2.47185    1.03290
H     -1.88513   -2.68965    0.71559
H     -0.54582   -3.29455    1.51254
N     -1.94509    0.54948    1.82075
H     -2.37163    0.13016    2.65796
H     -1.79979    1.53586    2.06131
