29

O     11.78532    7.15953   13.29442
Fe    13.50684    7.54823   11.53088
N     14.97525    7.81182    9.80592
N     12.36836    8.33010   10.00525
O     15.05846    8.64054   12.37952
N     14.07429    5.61803   11.10070
C     14.45860    8.93010    8.98698
H     14.80705    8.82817    7.94128
C     12.96141    8.88167    9.01449
C     16.26985    8.03901   10.43437
H     16.73526    7.06232   10.66244
H     16.99319    8.55988    9.78442
C     16.14292    8.70406   11.78303
C     14.93940    6.54557    9.07144
H     14.14956    6.57872    8.29765
H     15.87539    6.34973    8.51506
C     14.59649    5.39693    9.95363
H     12.40591    9.39186    8.20947
H     14.77076    4.37502    9.57418
H     13.81560    4.79280   11.65131
H     11.34461    8.38371   10.01409
C     14.85290   10.31900    9.47674
H     14.52087   10.49394   10.50970
H     15.93632   10.47954    9.39183
H     14.37508   11.07875    8.83923
C     17.31612    9.36928   12.36934
H     17.19687    9.51106   13.45205
H     18.24789    8.83167   12.12852
H     17.40741   10.36489   11.89258
