23

O     11.80950    7.00312   13.21572
Fe    13.27029    7.43560   11.63979
N     14.81301    7.76234    9.95102
N     12.19084    8.41092   10.20032
O     14.70424    8.85053   12.41783
N     13.98799    5.57571   11.26744
C     14.29829    8.87561    9.14879
H     14.74605    9.82815    9.49024
H     14.60493    8.80184    8.08999
C     12.82365    9.01323    9.26395
C     16.05630    8.04255   10.63696
H     16.48229    7.08852   11.00505
C     15.80485    8.86011   11.88493
C     14.85973    6.49603    9.22280
H     14.07207    6.47961    8.45014
H     15.81911    6.35984    8.69286
C     14.57892    5.34574   10.14555
H     12.30954    9.66950    8.54021
H     16.65018    9.43159   12.32591
H     13.77306    4.76070   11.85058
H     11.17902    8.57304   10.24163
Br    17.42945    8.83758    9.54295
Br    15.05327    3.67871    9.55874
