33

O      6.89976   22.75002    7.07142
Fe     6.22097   21.67823    4.89967
N      5.97758   19.60822    5.44158
C      5.66965   18.72563    4.30829
C      4.50710   19.16088    3.43153
C      3.92609   21.70263    3.36086
C      4.41870   23.07825    2.92963
N      5.72192   23.34619    3.55080
C      5.85126   20.64178    1.79749
C      7.25829   20.60921    2.33673
N      7.56000   21.09166    3.51738
H      4.39389   18.34935    2.69429
H      2.84803   21.64835    3.13029
H      3.56158   19.12598    4.00115
H      5.78380   21.57247    1.20840
H      5.79630   19.84662    1.03745
H      4.45657   23.15963    1.83358
H      3.68972   23.83292    3.26486
H      5.45481   17.70596    4.67325
H      6.58325   18.64323    3.70271
C      4.57356   20.47958    2.64075
H      3.84000   20.32435    1.83314
H      6.85146   19.30606    5.88189
H      5.27634   19.50915    6.18063
H      8.55607   21.06345    3.74523
H      6.47107   23.42015    2.86287
H      5.72282   24.23058    4.06223
N      8.17345   20.11819    1.49947
H      9.16475   20.12855    1.72141
H      7.91849   19.76952    0.58187
N      4.11034   21.65349    4.81552
H      3.67659   22.46061    5.27247
H      3.65523   20.83192    5.21259
