23

O      0.40563   -0.11320   -2.48877
O     -0.52170   -2.07818   -0.23040
O      0.08708    2.13902   -0.31843
P      2.06744   -0.28349    0.42573
N     -2.50218    0.36649   -0.36521
O     -0.64925    0.13074    1.73012
H     -0.44904   -2.37325    0.69366
H      0.25540    2.43204    0.59357
H      2.92356    0.66575   -0.18338
H      2.58175   -1.51279   -0.05479
H     -2.85490    1.25534    0.00299
H     -2.73333    0.38146   -1.36365
H      0.00201    0.06919    2.44469
H     -1.49736    0.26955    2.17863
Fe    -0.36855    0.05402   -0.14419
H      2.58277   -0.28524    1.75025
H     -3.09510   -0.36767    0.03424
N      1.16517    2.69351   -1.07327
H      0.81768    3.60816   -1.39149
H      1.18033    2.09519   -1.90674
N      0.34449   -2.95293   -0.95283
H      0.52376   -2.42326   -1.81327
H     -0.25295   -3.74360   -1.22961
