23

O      0.42459   -0.11730   -2.54619
O     -0.52170   -2.07818   -0.23040
O      0.08708    2.13902   -0.31843
P      2.04848   -0.27939    0.48315
N     -2.52114    0.37059   -0.30779
O     -0.64925    0.13074    1.73012
H     -0.44904   -2.37325    0.69366
H      0.25540    2.43204    0.59357
H      2.90460    0.66985   -0.12596
H      2.56279   -1.50869    0.00263
H     -2.87386    1.25944    0.06041
H     -2.75229    0.38556   -1.30623
H      0.00201    0.06919    2.44469
H     -1.49736    0.26955    2.17863
Fe    -0.38751    0.05812   -0.08677
H      2.56381   -0.28114    1.80767
H     -3.11406   -0.36357    0.09166
N      1.16517    2.69351   -1.07327
H      0.81768    3.60816   -1.39149
H      1.18033    2.09519   -1.90674
N      0.34449   -2.95293   -0.95283
H      0.52376   -2.42326   -1.81327
H     -0.25295   -3.74360   -1.22961
