18

H 0.000000 0.000000 0.000000
H 0.000000 0.000000 2.078788
H 0.000000 0.000000 4.157576
H 0.000000 0.000000 6.236364
H 0.000000 0.000000 8.315152
H 0.000000 0.000000 10.393939
H 0.000000 0.000000 12.472727
H 0.000000 0.000000 14.551515
H 0.000000 0.000000 16.630303
H 0.000000 0.000000 18.709091
H 0.000000 0.000000 20.787879
H 0.000000 0.000000 22.866667
H 0.000000 0.000000 24.945455
H 0.000000 0.000000 27.024242
H 0.000000 0.000000 29.103030
H 0.000000 0.000000 31.181818
H 0.000000 0.000000 33.260606
H 0.000000 0.000000 35.339394
