54

O      7.46508   22.93407    6.91056
Fe     5.92017   22.08213    4.71292
P      5.73087   20.05342    5.78406
C      5.00011   18.75689    4.71056
C      3.98043   19.43293    3.81550
P      4.79858   20.92526    3.16329
C      3.54836   22.07415    2.52778
C      4.08708   23.47380    2.73909
N      4.74066   23.72350    4.04750
C      5.90409   20.38852    1.79619
C      7.33824   20.35143    2.29345
P      7.66748   21.92217    3.17892
C      9.27696   21.78442    3.98200
C      7.93989   23.12284    1.84735
H      3.61897   18.78797    2.99774
H      3.34669   21.89456    1.45931
H      2.61542   21.88386    3.07236
H      3.10311   19.77245    4.39031
H      5.78800   21.11998    0.97985
H      5.56510   19.41463    1.40691
H      8.05877   20.20173    1.47209
H      7.48812   19.53436    3.01676
H      8.74533   22.74804    1.19454
H      7.03315   23.27371    1.24606
H      8.25481   24.08482    2.27793
H     10.05577   21.54546    3.24026
H      9.50024   22.74944    4.46195
H      9.25044   21.01630    4.76443
H      4.85709   23.66675    1.97840
H      3.29302   24.22427    2.58042
C      3.78434   23.95124    5.14986
H      4.39432   24.25346    6.00932
H      3.14031   24.81221    4.89378
C      5.57313   24.94587    3.84602
H      6.28208   24.69092    3.04893
H      4.90342   25.72403    3.43407
H      4.56336   17.95143    5.32350
H      5.81675   18.31176    4.11956
C      4.72126   20.07054    7.28263
H      3.66919   20.27351    7.04122
H      4.79950   19.08692    7.77322
H      5.09622   20.85065    7.95820
C      7.34760   19.45154    6.30392
H      7.22600   18.51856    6.87769
H      7.97558   19.25464    5.42494
H      7.82198   20.22340    6.92697
C      6.31404   25.49340    5.03513
H      5.64536   25.88684    5.81353
H      6.98210   24.74417    5.47874
H      6.92312   26.34197    4.68700
C      2.96141   22.74389    5.52541
H      2.57384   22.85847    6.54806
H      2.09987   22.57849    4.86617
H      3.59605   21.84082    5.50705
