45

O     -0.32974   -3.00892    0.74053
Fe    -0.23001   -2.30714    1.76091
N      1.87914   -2.43628    2.23460
N      0.28156   -0.42114    0.95363
N     -2.26696   -1.97916    2.37053
O     -0.16464   -2.16261    3.94002
C     -0.04726   -0.34315   -0.47743
C      1.73877   -0.25600    1.15041
C      2.22710   -1.00861    2.36600
C      2.68353   -3.09184    1.19631
C     -0.45307    0.60274    1.73310
C     -1.96047    0.45335    1.77478
C     -2.50078   -0.56991    2.74695
C     -3.15065   -2.39561    1.27100
C      1.06894   -2.50794    4.54942
C      1.87451   -3.20014    3.47928
C     -1.37574   -2.54142    4.59588
C     -2.37296   -2.88709    3.50752
H     -2.96513   -3.44975    1.03237
H     -4.20334   -2.26402    1.56764
H     -2.94084   -1.79335    0.38019
H      0.22842    0.64741   -0.87735
H      0.49195   -1.13067   -1.01719
H     -1.12019   -0.50334   -0.62984
H      1.98809    0.81380    1.25048
H      2.24582   -0.60948    0.24432
H      2.52946   -2.59394    0.23379
H      3.75278   -3.06012    1.46479
H      2.35993   -4.13346    1.09335
H      1.74634   -0.60273    3.26440
H      3.31643   -0.87505    2.48574
H      2.88736   -3.47393    3.82305
H     -1.21527   -3.43160    5.22238
H     -1.72442   -1.71572    5.23640
H     -2.18428   -3.90324    3.12624
H     -2.04296   -0.40117    3.72995
H     -3.58754   -0.43519    2.87678
H     -2.35478    1.42579    2.11135
H     -2.38281    0.32407    0.76795
H     -0.05353    0.58985    2.75933
H     -0.19596    1.58675    1.30076
H      1.56871   -1.60030    4.92882
H      0.92280   -3.18762    5.40205
Br     0.93751   -4.87800    3.11469
Br    -4.12383   -2.94815    4.31466
