19

O      0.70941   -0.19196   -2.04725
O     -0.07667   -2.14670    0.00558
O      0.48624    2.04125   -0.09179
P      2.69365   -0.39391    0.18575
P     -2.22553    0.28254   -0.92454
O     -0.19929    0.04417    1.85116
H     -0.65105   -2.55787    0.66895
H     -0.17938   -2.66954   -0.80506
H      0.63207    2.49047    0.75474
H      1.12428    2.42903   -0.71319
H      3.24412   -1.46095   -0.57368
H     -2.38730    1.24743   -1.95659
H      0.37968   -0.22737    2.57891
H     -1.02912    0.31306    2.27257
Fe     0.21781   -0.05999   -0.24922
H      3.29114   -0.66410    1.45107
H     -3.31886    0.66526   -0.09332
Br    -2.95938   -1.53617   -1.85346
Br     3.80496    1.33343   -0.49839
