22

O      0.66299   -0.98019   -2.59781
N      2.79878   -0.75498   -0.41972
H      3.21989   -0.62371   -1.34293
H      3.07628   -1.69324   -0.11662
Fe     0.64573   -0.41542   -0.41731
H      3.26331   -0.09277    0.20717
P      0.74173    1.85201   -0.81088
H      0.11571    2.27746   -2.01246
H      0.11548    2.70474    0.13624
P     -0.57408   -2.36482   -0.17361
H     -1.46981   -2.64240   -1.23558
H      0.29302   -3.48780   -0.22955
H     -1.34988   -2.67318    0.97449
P     -1.98622    0.47071   -0.94972
H     -2.37131    0.04025   -2.24560
H     -2.94231   -0.23275   -0.16537
H     -2.60801    1.75281   -0.92983
P      0.54800   -0.02616    1.83811
H      0.89032   -1.11068    2.69481
H     -0.72787    0.30043    2.37500
Br     1.81874    1.55478    2.60504
Br     2.72761    2.71278   -0.96423
