23

O     11.67486    6.96326   13.36096
Fe    13.40493    7.47546   11.49455
N     14.94765    7.80220    9.80578
N     12.32548    8.45078   10.05508
O     14.83888    8.89039   12.27259
N     14.12263    5.61557   11.12220
C     14.43293    8.91547    9.00355
H     14.88069    9.86801    9.34500
H     14.73957    8.84170    7.94475
C     12.95829    9.05309    9.11871
C     16.19094    8.08241   10.49172
H     16.61693    7.12838   10.85981
C     15.93949    8.89997   11.73969
C     14.99437    6.53589    9.07756
H     14.20671    6.51947    8.30490
H     15.95375    6.39970    8.54762
C     14.71356    5.38560   10.00031
H     12.44418    9.70936    8.39497
H     16.78482    9.47145   12.18067
H     13.90770    4.80056   11.70534
H     11.31366    8.61290   10.09639
Br    17.56409    8.87744    9.39771
Br    15.18791    3.71857    9.41350
