12

H 0.000000 0.000000 0.000000
H 0.000000 0.000000 1.763636
H 0.000000 0.000000 3.527273
H 0.000000 0.000000 5.290909
H 0.000000 0.000000 7.054545
H 0.000000 0.000000 8.818182
H 0.000000 0.000000 10.581818
H 0.000000 0.000000 12.345455
H 0.000000 0.000000 14.109091
H 0.000000 0.000000 15.872727
H 0.000000 0.000000 17.636364
H 0.000000 0.000000 19.400000
