12

H 0.000000 0.000000 0.000000
H 0.000000 0.000000 1.327273
H 0.000000 0.000000 2.654545
H 0.000000 0.000000 3.981818
H 0.000000 0.000000 5.309091
H 0.000000 0.000000 6.636364
H 0.000000 0.000000 7.963636
H 0.000000 0.000000 9.290909
H 0.000000 0.000000 10.618182
H 0.000000 0.000000 11.945455
H 0.000000 0.000000 13.272727
H 0.000000 0.000000 14.600000
