29

O     11.74351    7.15009   13.33726
Fe    13.54865    7.55767   11.48804
N     15.01706    7.82126    9.76308
N     12.41017    8.33954    9.96241
O     15.10027    8.64998   12.33668
N     14.11610    5.62747   11.05786
C     14.50041    8.93954    8.94414
H     14.84886    8.83761    7.89844
C     13.00322    8.89111    8.97165
C     16.31166    8.04845   10.39153
H     16.77707    7.07176   10.61960
H     17.03500    8.56932    9.74158
C     16.18473    8.71350   11.74019
C     14.98121    6.55501    9.02860
H     14.19137    6.58816    8.25481
H     15.91720    6.35917    8.47222
C     14.63830    5.40637    9.91079
H     12.44772    9.40130    8.16663
H     14.81257    4.38446    9.53134
H     13.85741    4.80224   11.60847
H     11.38642    8.39315    9.97125
C     14.89471   10.32844    9.43390
H     14.56268   10.50338   10.46686
H     15.97813   10.48898    9.34899
H     14.41689   11.08819    8.79639
C     17.35793    9.37872   12.32650
H     17.23868    9.52050   13.40921
H     18.28970    8.84111   12.08568
H     17.44922   10.37433   11.84974
