23

O      0.27333   -0.49984   -1.99460
O     -0.56276   -2.20983    0.02884
O      0.18933    2.08207   -0.28257
P      2.30972   -0.55754    0.05634
N     -2.25292    0.27395   -0.66543
O     -0.47882    0.27163    1.69224
H     -1.00595   -2.61972    0.78588
H     -0.44012   -2.89913   -0.64100
H      3.16724    0.33118   -0.64201
H      2.77127   -1.79303   -0.46383
H     -2.43771    1.00837   -1.35400
H     -2.76637   -0.54875   -0.99522
H     -0.05123   -0.17854    2.43422
H     -0.23636    1.24145    1.77340
Fe    -0.15456   -0.17276   -0.41736
H      2.94239   -0.56589    1.32942
H     -2.70360    0.56195    0.20788
N      0.24389    2.71179    0.98275
H      1.19077    3.09130    1.11489
H     -0.41483    3.50186    0.97497
N      0.49817    2.81617   -1.41346
H     -0.13512    3.62353   -1.46170
H      1.46051    3.16516   -1.32741
