22

O      0.66098   -0.91434   -2.34358
N      2.79878   -0.75498   -0.41972
H      3.21989   -0.62371   -1.34293
H      3.07628   -1.69324   -0.11662
Fe     0.64774   -0.48127   -0.67154
H      3.26331   -0.09277    0.20717
P      0.74374    1.78616   -1.06511
H      0.11772    2.21161   -2.26669
H      0.11749    2.63889   -0.11799
P     -0.57207   -2.43067   -0.42784
H     -1.46780   -2.70825   -1.48981
H      0.29503   -3.55365   -0.48378
H     -1.34787   -2.73903    0.72026
P     -1.98622    0.47071   -0.94972
H     -2.37131    0.04025   -2.24560
H     -2.94231   -0.23275   -0.16537
H     -2.60801    1.75281   -0.92983
P      0.55001   -0.09201    1.58388
H      0.89233   -1.17653    2.44058
H     -0.72586    0.23458    2.12077
Br     1.82075    1.48893    2.35081
Br     2.72962    2.64693   -1.21846
