29

O     -2.50824    2.15182    1.83319
Fe    -2.37382    2.18918    0.15211
N     -3.62732    3.85449   -0.15908
O     -1.93534    1.69862   -2.01175
N     -0.28438    2.48191    0.22958
O     -3.63986    0.54067    0.09988
C     -4.87554    3.63232    0.58885
H     -5.54445    4.50134    0.46730
H     -5.38062    2.73621    0.20300
H     -4.64320    3.49375    1.65159
C     -2.88035    4.99723    0.38784
H     -1.95061    5.14466   -0.18093
H     -3.48354    5.91871    0.31107
H     -2.64637    4.80814    1.44391
C     -3.91359    4.04821   -1.58557
H     -4.45541    3.17475   -1.97710
H     -4.55458    4.93602   -1.72662
H     -2.97919    4.20855   -2.14142
H     -1.31125    1.00478   -2.27108
H     -2.51814    1.81556   -2.77573
H      0.12149    2.27472    1.14963
H     -3.87748    0.33544    1.01821
C      0.54844    2.97272   -0.60617
H      1.60861    3.14238   -0.35013
H      0.20867    3.23784   -1.61859
C     -3.81803   -0.62023   -0.72432
H     -3.07884   -1.39852   -0.46978
H     -4.83951   -1.01124   -0.58962
H     -3.68931   -0.30679   -1.76729
