24

O     -0.26040    0.74338   -3.13329
N      2.27614    0.24849   -0.63225
H      2.54657    0.25396   -1.62026
H      2.67105   -0.60027   -0.21632
Fe     0.15146    0.24972   -0.53487
H      2.75142    1.03260   -0.17904
P      0.27629    3.03788   -0.55478
H      1.11728    3.57301   -1.56651
H     -0.87528    3.83357   -0.80306
H      0.79082    3.72520    0.58078
P     -0.20068   -2.18094   -1.32815
H     -0.75509   -2.53322   -2.58381
H      0.94590   -3.01171   -1.28481
H     -1.05685   -2.89094   -0.44426
P     -2.11589    0.66870   -0.13444
H     -2.72713    1.50553   -1.11394
H     -2.89792   -0.50947   -0.23684
P      0.17312   -0.26420    1.80620
H      0.20423    0.77071    2.77822
H     -0.91111   -1.03654    2.29495
N     -2.42540    1.15566    1.44802
H     -2.09210    2.08838    1.69036
H     -3.37797    1.02454    1.79747
Br     1.88952   -1.48784    2.34014
