53

O      5.77863   23.30454    7.68986
Fe     6.49498   22.27800    5.03034
P      6.15752   20.12582    5.55831
C      5.92202   18.84235    4.28320
C      4.85487   19.01821    3.20625
C      4.34790   21.48970    3.16500
C      4.58162   22.89092    2.60264
P      5.21368   23.83456    4.02502
C      6.04300   20.48362    1.45852
C      7.42618   20.56654    2.07564
P      7.79967   21.91598    3.23925
C      9.40661   21.43512    3.93795
C      8.23246   23.32160    2.17593
H      4.95068   18.15410    2.52922
H      5.10939   21.45860    4.06823
H      3.87342   18.88432    3.68705
H      5.87914   21.34967    0.79805
H      6.06831   19.62394    0.76845
H      8.17565   20.67816    1.27272
H      7.69285   19.63889    2.59601
H      9.06487   23.03044    1.51549
H      7.38136   23.62668    1.55269
H      8.55152   24.17066    2.79790
H     10.13738   21.25819    3.13192
H      9.78459   22.23944    4.58850
H      9.28955   20.51919    4.53388
H      5.37274   22.87965    1.84261
H      3.68162   23.32563    2.13775
C      3.80520   24.13697    5.11061
H      4.16898   24.69609    5.98535
H      3.03271   24.72083    4.58472
H      3.39301   23.18168    5.46107
C      5.75216   25.47190    3.49785
H      6.15643   26.00488    4.37306
H      6.52226   25.41829    2.71957
H      4.88062   26.02853    3.11563
H      5.66181   17.94366    4.87156
H      6.91392   18.62368    3.86425
C      4.49109   20.18499    6.45733
H      3.79781   20.65521    5.73839
H      4.21059   19.11992    6.54862
C      7.27635   19.37403    6.76173
H      6.88915   18.38586    7.05994
H      8.28660   19.25625    6.34456
H      7.33040   20.03122    7.63982
C      4.81759   20.28306    2.34219
H      3.99228   20.11917    1.62475
N      4.47599   20.82930    7.69761
H      4.71704   21.82060    7.65428
H      4.95289   20.34818    8.45426
N      3.05171   21.33311    3.67981
H      2.41459   22.11153    3.56190
H      2.59891   20.44050    3.51864
