19

O      0.77318   -0.20909   -2.28051
O     -0.14044   -2.12957    0.23884
O      0.42247    2.05838    0.14147
P      2.62988   -0.37678    0.41901
P     -2.22553    0.28254   -0.92454
O     -0.19929    0.04417    1.85116
H     -0.71482   -2.54074    0.90221
H     -0.24315   -2.65241   -0.57180
H      0.56830    2.50760    0.98800
H      1.06051    2.44616   -0.47993
H      3.18035   -1.44382   -0.34042
H     -2.38730    1.24743   -1.95659
H      0.37968   -0.22737    2.57891
H     -1.02912    0.31306    2.27257
Fe     0.15404   -0.04286   -0.01596
H      3.22737   -0.64697    1.68433
H     -3.31886    0.66526   -0.09332
Br    -2.95938   -1.53617   -1.85346
Br     3.74119    1.35056   -0.26513
