16

H 0.000000 0.000000 0.000000
H 0.000000 0.000000 0.987879
H 0.000000 0.000000 1.975758
H 0.000000 0.000000 2.963636
H 0.000000 0.000000 3.951515
H 0.000000 0.000000 4.939394
H 0.000000 0.000000 5.927273
H 0.000000 0.000000 6.915152
H 0.000000 0.000000 7.903030
H 0.000000 0.000000 8.890909
H 0.000000 0.000000 9.878788
H 0.000000 0.000000 10.866667
H 0.000000 0.000000 11.854545
H 0.000000 0.000000 12.842424
H 0.000000 0.000000 13.830303
H 0.000000 0.000000 14.818182
