23

O     12.07204    7.08084   12.93249
Fe    13.00775    7.35788   11.92302
N     14.55047    7.68462   10.23425
N     11.92830    8.33320   10.48355
O     14.44170    8.77281   12.70106
N     13.72545    5.49799   11.55067
C     14.03575    8.79789    9.43202
H     14.48351    9.75043    9.77347
H     14.34239    8.72412    8.37322
C     12.56111    8.93551    9.54718
C     15.79376    7.96483   10.92019
H     16.21975    7.01080   11.28828
C     15.54231    8.78239   12.16816
C     14.59719    6.41831    9.50603
H     13.80953    6.40189    8.73337
H     15.55657    6.28212    8.97609
C     14.31638    5.26802   10.42878
H     12.04700    9.59178    8.82344
H     16.38764    9.35387   12.60914
H     13.51052    4.68298   12.13381
H     10.91648    8.49532   10.52486
Br    17.16691    8.75986    9.82618
Br    14.79073    3.60099    9.84197
