19

O      0.63766   -0.17270   -1.78483
O     -0.00492   -2.16596   -0.25684
O      0.55799    2.02199   -0.35421
P      2.76540   -0.41317   -0.07667
P     -2.22553    0.28254   -0.92454
O     -0.19929    0.04417    1.85116
H     -0.57930   -2.57713    0.40653
H     -0.10763   -2.68880   -1.06748
H      0.70382    2.47121    0.49232
H      1.19603    2.40977   -0.97561
H      3.31587   -1.48021   -0.83610
H     -2.38730    1.24743   -1.95659
H      0.37968   -0.22737    2.57891
H     -1.02912    0.31306    2.27257
Fe     0.28956   -0.07925   -0.51164
H      3.36289   -0.68336    1.18865
H     -3.31886    0.66526   -0.09332
Br    -2.95938   -1.53617   -1.85346
Br     3.87671    1.31417   -0.76081
