19

O      0.62703   -0.16985   -1.74596
O      0.00571   -2.16881   -0.29571
O      0.56862    2.01914   -0.39308
P      2.77603   -0.41602   -0.11554
P     -2.22553    0.28254   -0.92454
O     -0.19929    0.04417    1.85116
H     -0.56867   -2.57998    0.36766
H     -0.09700   -2.69165   -1.10635
H      0.71445    2.46836    0.45345
H      1.20666    2.40692   -1.01448
H      3.32650   -1.48306   -0.87497
H     -2.38730    1.24743   -1.95659
H      0.37968   -0.22737    2.57891
H     -1.02912    0.31306    2.27257
Fe     0.30019   -0.08210   -0.55051
H      3.37352   -0.68621    1.14978
H     -3.31886    0.66526   -0.09332
Br    -2.95938   -1.53617   -1.85346
Br     3.88734    1.31132   -0.79968
