22

O      0.66477   -1.03844   -2.82271
N      2.79878   -0.75498   -0.41972
H      3.21989   -0.62371   -1.34293
H      3.07628   -1.69324   -0.11662
Fe     0.64395   -0.35717   -0.19241
H      3.26331   -0.09277    0.20717
P      0.73995    1.91026   -0.58598
H      0.11393    2.33571   -1.78756
H      0.11370    2.76299    0.36114
P     -0.57586   -2.30657    0.05129
H     -1.47159   -2.58415   -1.01068
H      0.29124   -3.42955   -0.00465
H     -1.35166   -2.61493    1.19939
P     -1.98622    0.47071   -0.94972
H     -2.37131    0.04025   -2.24560
H     -2.94231   -0.23275   -0.16537
H     -2.60801    1.75281   -0.92983
P      0.54622    0.03209    2.06301
H      0.88854   -1.05243    2.91971
H     -0.72965    0.35868    2.59990
Br     1.81696    1.61303    2.82994
Br     2.72583    2.77103   -0.73933
