18

O      0.78918   -0.10048   -2.49525
O     -0.37315   -2.07104    0.21573
O      0.35893    2.08039    0.26122
N      2.19573   -0.38691    0.56034
O     -1.87800    0.34074   -0.54394
O     -0.33312    0.05252    1.71435
H     -0.59661   -2.49070    1.06660
H      0.27968    2.53609    1.11911
H      2.79091    0.34896    0.16604
H      2.51369   -1.25645    0.11987
H     -2.16696    1.17628   -0.94383
H     -2.43112   -0.34195   -0.95570
H      0.09815   -0.02801    2.57767
H     -1.27174    0.21562    1.89506
Fe     0.16955   -0.02273    0.00366
H      2.44057   -0.45771    1.55188
Br     1.16845    3.28034   -0.89655
Br     0.02971   -3.44995   -0.95595
