23

O     11.95086    7.04497   13.06321
Fe    13.12893    7.39375   11.79230
N     14.67165    7.72049   10.10353
N     12.04948    8.36907   10.35283
O     14.56288    8.80868   12.57034
N     13.84663    5.53386   11.41995
C     14.15693    8.83376    9.30130
H     14.60469    9.78630    9.64275
H     14.46357    8.75999    8.24250
C     12.68229    8.97138    9.41646
C     15.91494    8.00070   10.78947
H     16.34093    7.04667   11.15756
C     15.66349    8.81826   12.03744
C     14.71837    6.45418    9.37531
H     13.93071    6.43776    8.60265
H     15.67775    6.31799    8.84537
C     14.43756    5.30389   10.29806
H     12.16818    9.62765    8.69272
H     16.50882    9.38974   12.47842
H     13.63170    4.71885   12.00309
H     11.03766    8.53119   10.39414
Br    17.28809    8.79573    9.69546
Br    14.91191    3.63686    9.71125
