17

O      0.00000    0.00000    1.44141
Fe     0.00000    0.00000    0.15859
O     -0.02532   -2.04942    0.11682
O      0.01885    2.04941    0.11310
O     -2.09136   -0.00340   -0.03171
O      2.09172    0.00000   -0.02766
O      0.00000    0.00000   -1.89141
H      0.26040   -2.63210   -0.60880
H      0.04961   -2.57039    0.93696
H     -0.25655    2.63228   -0.61628
H     -0.05040    2.57471    0.93091
H     -2.58023    0.46315    0.67255
H     -2.52460   -0.87680   -0.06948
H      2.52747    0.87055   -0.09221
H      2.57839   -0.44571    0.69151
H     -0.77522    0.08407   -2.47204
H      0.77001   -0.10212   -2.47600
