19

O      0.65095   -0.17627   -1.83343
O     -0.01821   -2.16239   -0.20824
O      0.54470    2.02556   -0.30561
P      2.75211   -0.40960   -0.02807
P     -2.22553    0.28254   -0.92454
O     -0.19929    0.04417    1.85116
H     -0.59259   -2.57356    0.45513
H     -0.12092   -2.68523   -1.01888
H      0.69053    2.47478    0.54092
H      1.18274    2.41334   -0.92701
H      3.30258   -1.47664   -0.78750
H     -2.38730    1.24743   -1.95659
H      0.37968   -0.22737    2.57891
H     -1.02912    0.31306    2.27257
Fe     0.27627   -0.07568   -0.46304
H      3.34960   -0.67979    1.23725
H     -3.31886    0.66526   -0.09332
Br    -2.95938   -1.53617   -1.85346
Br     3.86342    1.31774   -0.71221
