22

O      0.66307   -0.98272   -2.60759
N      2.79878   -0.75498   -0.41972
H      3.21989   -0.62371   -1.34293
H      3.07628   -1.69324   -0.11662
Fe     0.64565   -0.41289   -0.40753
H      3.26331   -0.09277    0.20717
P      0.74165    1.85454   -0.80110
H      0.11563    2.27999   -2.00268
H      0.11540    2.70727    0.14602
P     -0.57416   -2.36229   -0.16383
H     -1.46989   -2.63987   -1.22580
H      0.29294   -3.48527   -0.21977
H     -1.34996   -2.67065    0.98427
P     -1.98622    0.47071   -0.94972
H     -2.37131    0.04025   -2.24560
H     -2.94231   -0.23275   -0.16537
H     -2.60801    1.75281   -0.92983
P      0.54792   -0.02363    1.84789
H      0.89024   -1.10815    2.70459
H     -0.72795    0.30296    2.38478
Br     1.81866    1.55731    2.61482
Br     2.72753    2.71531   -0.95445
