23

O      0.34594   -0.55535   -2.26226
O     -0.63537   -2.15432    0.29650
O      0.18933    2.08207   -0.28257
P      2.30972   -0.55754    0.05634
N     -2.32553    0.32946   -0.39777
O     -0.47882    0.27163    1.69224
H     -1.07856   -2.56421    1.05354
H     -0.51273   -2.84362   -0.37334
H      3.16724    0.33118   -0.64201
H      2.77127   -1.79303   -0.46383
H     -2.51032    1.06388   -1.08634
H     -2.83898   -0.49324   -0.72756
H     -0.05123   -0.17854    2.43422
H     -0.23636    1.24145    1.77340
Fe    -0.22717   -0.11725   -0.14970
H      2.94239   -0.56589    1.32942
H     -2.77621    0.61746    0.47554
N      0.24389    2.71179    0.98275
H      1.19077    3.09130    1.11489
H     -0.41483    3.50186    0.97497
N      0.49817    2.81617   -1.41346
H     -0.13512    3.62353   -1.46170
H      1.46051    3.16516   -1.32741
