33

O      6.70348   22.44011    6.44344
Fe     6.41725   21.98814    5.52765
N      6.17386   19.91813    6.06956
C      5.86593   19.03554    4.93627
C      4.70338   19.47079    4.05951
C      4.12237   22.01254    3.98884
C      4.61498   23.38816    3.55761
N      5.91820   23.65610    4.17878
C      6.04754   20.95169    2.42547
C      7.45457   20.91912    2.96471
N      7.75628   21.40157    4.14536
H      4.59017   18.65926    3.32227
H      3.04431   21.95826    3.75827
H      3.75786   19.43589    4.62913
H      5.98008   21.88238    1.83638
H      5.99258   20.15653    1.66543
H      4.65285   23.46954    2.46156
H      3.88600   24.14283    3.89284
H      5.65109   18.01587    5.30123
H      6.77953   18.95314    4.33069
C      4.76984   20.78949    3.26873
H      4.03628   20.63426    2.46112
H      7.04774   19.61597    6.50987
H      5.47262   19.81906    6.80861
H      8.75235   21.37336    4.37321
H      6.66735   23.73006    3.49085
H      5.91910   24.54049    4.69021
N      8.36973   20.42810    2.12745
H      9.36103   20.43846    2.34939
H      8.11477   20.07943    1.20985
N      4.30662   21.96340    5.44350
H      3.87287   22.77052    5.90045
H      3.85151   21.14183    5.84057
