45

O     -0.38081   -3.36837    0.21790
Fe    -0.17894   -1.94769    2.28354
N      1.93021   -2.07683    2.75723
N      0.33263   -0.06169    1.47626
N     -2.21589   -1.61971    2.89316
O     -0.11357   -1.80316    4.46265
C      0.00381    0.01630    0.04520
C      1.78984    0.10345    1.67304
C      2.27817   -0.64916    2.88863
C      2.73460   -2.73239    1.71894
C     -0.40200    0.96219    2.25573
C     -1.90940    0.81280    2.29741
C     -2.44971   -0.21046    3.26958
C     -3.09958   -2.03616    1.79363
C      1.12001   -2.14849    5.07205
C      1.92558   -2.84069    4.00191
C     -1.32467   -2.18197    5.11851
C     -2.32189   -2.52764    4.03015
H     -2.91406   -3.09030    1.55500
H     -4.15227   -1.90457    2.09027
H     -2.88977   -1.43390    0.90282
H      0.27949    1.00686   -0.35472
H      0.54302   -0.77122   -0.49456
H     -1.06912   -0.14389   -0.10721
H      2.03916    1.17325    1.77311
H      2.29689   -0.25003    0.76695
H      2.58053   -2.23449    0.75642
H      3.80385   -2.70067    1.98742
H      2.41100   -3.77401    1.61598
H      1.79741   -0.24328    3.78703
H      3.36750   -0.51560    3.00837
H      2.93843   -3.11448    4.34568
H     -1.16420   -3.07215    5.74501
H     -1.67335   -1.35627    5.75903
H     -2.13321   -3.54379    3.64887
H     -1.99189   -0.04172    4.25258
H     -3.53647   -0.07574    3.39941
H     -2.30371    1.78524    2.63398
H     -2.33174    0.68352    1.29058
H     -0.00246    0.94930    3.28196
H     -0.14489    1.94620    1.82339
H      1.61978   -1.24085    5.45145
H      0.97387   -2.82817    5.92468
Br     0.98858   -4.51855    3.63732
Br    -4.07276   -2.58870    4.83729
