22

O      0.52265   -0.08150   -2.27196
O     -0.13176   -2.17943   -0.07121
O      0.10773    2.16127   -0.26153
P      2.29593   -0.28995    0.30306
O     -2.11586   -0.04734   -0.47980
O     -0.64106    0.01076    1.68341
H     -0.22828   -2.85443   -0.76923
H      0.53141    2.57598    0.50515
H      0.36283    2.70154   -1.02613
H      3.20604    0.75612    0.00338
H      2.93831   -1.38447   -0.32679
H     -2.69167    0.33807   -1.15493
H     -2.39690    0.28333    0.47525
H     -0.79213   -1.01458    1.66698
Fe    -0.07563    0.04909   -0.44243
H      2.60438   -0.53311    1.66696
N     -0.93253   -2.47185    1.03290
H     -1.88513   -2.68965    0.71559
H     -0.54582   -3.29455    1.51254
N     -1.94509    0.54948    1.82075
H     -2.37163    0.13016    2.65796
H     -1.79979    1.53586    2.06131
