22

O      0.47567   -0.07124   -2.12828
O     -0.13176   -2.17943   -0.07121
O      0.10773    2.16127   -0.26153
P      2.34291   -0.30021    0.15938
O     -2.06888   -0.05760   -0.62348
O     -0.64106    0.01076    1.68341
H     -0.22828   -2.85443   -0.76923
H      0.53141    2.57598    0.50515
H      0.36283    2.70154   -1.02613
H      3.25302    0.74586   -0.14030
H      2.98529   -1.39473   -0.47047
H     -2.64469    0.32781   -1.29861
H     -2.34992    0.27307    0.33157
H     -0.79213   -1.01458    1.66698
Fe    -0.02865    0.03883   -0.58611
H      2.65136   -0.54337    1.52328
N     -0.93253   -2.47185    1.03290
H     -1.88513   -2.68965    0.71559
H     -0.54582   -3.29455    1.51254
N     -1.94509    0.54948    1.82075
H     -2.37163    0.13016    2.65796
H     -1.79979    1.53586    2.06131
