23

O      0.22551   -0.07430   -1.94330
O     -0.52170   -2.07818   -0.23040
O      0.08708    2.13902   -0.31843
P      2.24756   -0.32239   -0.11974
N     -2.32206    0.32759   -0.91068
O     -0.64925    0.13074    1.73012
H     -0.44904   -2.37325    0.69366
H      0.25540    2.43204    0.59357
H      3.10368    0.62685   -0.72885
H      2.76187   -1.55169   -0.60026
H     -2.67478    1.21644   -0.54248
H     -2.55321    0.34256   -1.90912
H      0.00201    0.06919    2.44469
H     -1.49736    0.26955    2.17863
Fe    -0.18843    0.01512   -0.68966
H      2.76289   -0.32414    1.20478
H     -2.91498   -0.40657   -0.51123
N      1.16517    2.69351   -1.07327
H      0.81768    3.60816   -1.39149
H      1.18033    2.09519   -1.90674
N      0.34449   -2.95293   -0.95283
H      0.52376   -2.42326   -1.81327
H     -0.25295   -3.74360   -1.22961
