52

O      7.55095   23.22987    6.13907
Fe     6.19834   22.02843    4.83132
N      5.85066   20.29854    5.95198
C      5.59481   19.12445    5.08523
C      4.52406   19.40105    4.04523
P      4.93418   21.01968    3.34770
C      3.54046   22.10162    2.95713
C      4.11714   23.49503    3.11906
N      4.86187   23.65971    4.39126
C      5.97074   20.73677    1.82446
C      7.38540   20.56065    2.36535
N      7.74148   21.54295    3.39953
C      8.98339   21.14136    4.07044
C      7.91700   22.87516    2.81156
H      4.50220   18.64072    3.24800
H      3.16899   21.92868    1.93365
H      2.70771   21.89879    3.64779
H      3.51324   19.43990    4.47936
H      5.89675   21.68730    1.27058
H      8.11499   20.60499    1.53647
H      7.46973   19.55876    2.81214
H      8.71393   22.86200    2.04691
H      6.98291   23.20182    2.33778
H      8.19213   23.58033    3.60654
H      9.82649   21.15599    3.35838
H      9.18210   21.83443    4.89763
H      8.87735   20.12110    4.45861
H      4.82564   23.70338    2.30336
H      3.32643   24.26388    3.05530
C      3.93685   23.66078    5.53124
H      4.51061   23.76561    6.46035
H      3.23122   24.50625    5.45327
H      3.36234   22.72883    5.55925
C      5.57540   24.94691    4.36719
H      6.16688   25.04889    5.28386
H      6.24890   24.98708    3.50439
H      4.85041   25.77488    4.29038
H      5.30683   18.28037    5.73561
H      6.54692   18.86050    4.60567
C      4.63344   20.55593    6.82148
H      3.82948   20.84142    6.12941
H      4.90424   21.44315    7.41329
C      6.99039   20.00376    6.83314
H      6.76687   19.11010    7.43734
H      7.88747   19.81573    6.23527
H      7.17728   20.86194    7.48808
N      5.46102   19.67740    1.03356
H      5.37627   19.88699    0.04358
H      5.93571   18.78821    1.16005
N      4.28159   19.44025    7.59581
H      3.35709   19.05729    7.43795
H      4.49147   19.49455    8.58613
