23

O     11.66140    6.95927   13.37549
Fe    13.41839    7.47945   11.48002
N     14.96111    7.80619    9.79125
N     12.33894    8.45477   10.04055
O     14.85234    8.89438   12.25806
N     14.13609    5.61956   11.10767
C     14.44639    8.91946    8.98902
H     14.89415    9.87200    9.33047
H     14.75303    8.84569    7.93022
C     12.97175    9.05708    9.10418
C     16.20440    8.08640   10.47719
H     16.63039    7.13237   10.84528
C     15.95295    8.90396   11.72516
C     15.00783    6.53988    9.06303
H     14.22017    6.52346    8.29037
H     15.96721    6.40369    8.53309
C     14.72702    5.38959    9.98578
H     12.45764    9.71335    8.38044
H     16.79828    9.47544   12.16614
H     13.92116    4.80455   11.69081
H     11.32712    8.61689   10.08186
Br    17.57755    8.88143    9.38318
Br    15.20137    3.72256    9.39897
