23

O      0.35113   -0.55931   -2.28138
O     -0.64056   -2.15036    0.31562
O      0.18933    2.08207   -0.28257
P      2.30972   -0.55754    0.05634
N     -2.33072    0.33342   -0.37865
O     -0.47882    0.27163    1.69224
H     -1.08375   -2.56025    1.07266
H     -0.51792   -2.83966   -0.35422
H      3.16724    0.33118   -0.64201
H      2.77127   -1.79303   -0.46383
H     -2.51551    1.06784   -1.06722
H     -2.84417   -0.48928   -0.70844
H     -0.05123   -0.17854    2.43422
H     -0.23636    1.24145    1.77340
Fe    -0.23236   -0.11329   -0.13058
H      2.94239   -0.56589    1.32942
H     -2.78140    0.62142    0.49466
N      0.24389    2.71179    0.98275
H      1.19077    3.09130    1.11489
H     -0.41483    3.50186    0.97497
N      0.49817    2.81617   -1.41346
H     -0.13512    3.62353   -1.46170
H      1.46051    3.16516   -1.32741
