18

O      0.79161   -0.10078   -2.50505
O     -0.37558   -2.07074    0.22553
O      0.35650    2.08069    0.27102
N      2.19330   -0.38661    0.57014
O     -1.87800    0.34074   -0.54394
O     -0.33312    0.05252    1.71435
H     -0.59904   -2.49040    1.07640
H      0.27725    2.53639    1.12891
H      2.78848    0.34926    0.17584
H      2.51126   -1.25615    0.12967
H     -2.16696    1.17628   -0.94383
H     -2.43112   -0.34195   -0.95570
H      0.09815   -0.02801    2.57767
H     -1.27174    0.21562    1.89506
Fe     0.16712   -0.02243    0.01346
H      2.43814   -0.45741    1.56168
Br     1.16602    3.28064   -0.88675
Br     0.02728   -3.44965   -0.94615
