37

O      0.70571    0.31286    2.89396
N      0.38177   -1.92152    1.16112
C      1.28660   -1.86981   -0.00216
H      0.73153   -1.42586   -0.84330
H      1.58016   -2.89029   -0.30687
C     -0.97907   -2.37944    0.81926
H     -1.45359   -2.64518    1.77528
H     -0.94529   -3.28643    0.18996
C      2.49687   -1.02802    0.32841
H      3.09002   -1.50658    1.12215
H      3.15797   -0.93828   -0.54956
C     -1.77056   -1.29567    0.13822
H     -2.82024   -1.61453    0.02319
H     -1.37729   -1.03659   -0.86125
C      1.92857    1.34599   -0.18968
H      2.91296    1.66648   -0.57389
H      1.36900    0.94317   -1.04765
C     -2.26260    1.07442    0.51582
H     -2.74481    1.55522    1.37891
H     -3.02004    0.87535   -0.25735
C     -1.13301    1.91954   -0.01975
H     -0.68461    1.45209   -0.90837
H     -1.49863    2.91777   -0.32502
C      1.20684    2.51635    0.43961
H      1.79636    2.91254    1.28104
H      1.05691    3.33819   -0.28160
N     -0.07849    2.05385    0.99888
Fe     0.18798    0.10592    1.85193
N      2.06561    0.28867    0.81249
O     -1.70500   -0.15561    0.99796
H      2.69425    0.60802    1.55234
N      0.84765   -2.65377    2.26697
H      1.67721   -2.20513    2.65198
H      1.09202   -3.61034    1.98866
N     -0.58459    2.75245    2.10369
H     -0.80451    3.72406    1.85776
H      0.11227    2.74284    2.84916
