36

O      7.42130   22.45496    6.47885
Fe     6.38761   21.91835    5.37297
N      5.61428   20.21490    6.14804
C      5.82718   19.21474    5.07208
C      4.84223   19.41546    3.92540
C      3.97164   21.93282    3.33123
C      4.70035   23.25912    3.54761
N      5.17286   23.48302    4.92654
C      5.96668   20.84307    2.04865
C      7.36535   20.84200    2.60375
O      7.52355   21.77682    3.70675
H      5.02037   18.54941    3.26842
H      3.44678   22.15125    2.38574
H      3.83677   19.23440    4.33854
H      5.80525   21.75633    1.45427
H      5.98703   20.02805    1.30475
H      8.07654   21.14875    1.81956
H      7.66775   19.84286    2.95972
H      5.56898   23.35923    2.88109
H      4.00271   24.07324    3.28489
H      6.86871   19.36111    4.73212
C      4.75170   20.62003    2.96202
H      4.01784   20.19159    2.26041
H      6.13225   19.95033    6.99281
H      4.62536   20.23243    6.41853
H      8.46128   22.00085    3.82152
H      5.67134   24.37547    5.00682
H      4.37857   23.55327    5.57170
C      2.88117   21.71845    4.36555
H      2.22832   22.60291    4.44021
H      2.23645   20.86878    4.09733
H      3.27805   21.51559    5.37417
C      5.72308   17.80825    5.63752
H      5.96122   17.06676    4.86063
H      6.42788   17.65855    6.47065
H      4.70041   17.60976    5.99694
