36

O      7.81787   22.66084    6.90311
Fe     5.99104   21.71247    4.94871
N      5.21771   20.00902    5.72378
C      5.43061   19.00886    4.64782
C      4.44566   19.20958    3.50114
C      3.57507   21.72694    2.90697
C      4.30378   23.05324    3.12335
N      4.77629   23.27714    4.50228
C      5.57011   20.63719    1.62439
C      6.96878   20.63612    2.17949
O      7.12698   21.57094    3.28249
H      4.62380   18.34353    2.84416
H      3.05021   21.94537    1.96148
H      3.44020   19.02852    3.91428
H      5.40868   21.55045    1.03001
H      5.59046   19.82217    0.88049
H      7.67997   20.94287    1.39530
H      7.27118   19.63698    2.53546
H      5.17241   23.15335    2.45683
H      3.60614   23.86736    2.86063
H      6.47214   19.15523    4.30786
C      4.35513   20.41415    2.53776
H      3.62127   19.98571    1.83615
H      5.73568   19.74445    6.56855
H      4.22879   20.02655    5.99427
H      8.06471   21.79497    3.39726
H      5.27477   24.16959    4.58256
H      3.98200   23.34739    5.14744
C      2.48460   21.51257    3.94129
H      1.83175   22.39703    4.01595
H      1.83988   20.66290    3.67307
H      2.88148   21.30971    4.94991
C      5.32651   17.60237    5.21326
H      5.56465   16.86088    4.43637
H      6.03131   17.45267    6.04639
H      4.30384   17.40388    5.57268
