18

O      0.77217   -0.09834   -2.42665
O     -0.35614   -2.07318    0.14713
O      0.37594    2.07825    0.19262
N      2.21274   -0.38905    0.49174
O     -1.87800    0.34074   -0.54394
O     -0.33312    0.05252    1.71435
H     -0.57960   -2.49284    0.99800
H      0.29669    2.53395    1.05051
H      2.80792    0.34682    0.09744
H      2.53070   -1.25859    0.05127
H     -2.16696    1.17628   -0.94383
H     -2.43112   -0.34195   -0.95570
H      0.09815   -0.02801    2.57767
H     -1.27174    0.21562    1.89506
Fe     0.18656   -0.02487   -0.06494
H      2.45758   -0.45985    1.48328
Br     1.18546    3.27820   -0.96515
Br     0.04672   -3.45209   -1.02455
