29

O     -2.52917    2.14600    2.09492
Fe    -2.35289    2.19500   -0.10962
N     -3.60639    3.86031   -0.42081
O     -1.93534    1.69862   -2.01175
N     -0.26345    2.48773   -0.03215
O     -3.61893    0.54649   -0.16185
C     -4.85461    3.63814    0.32712
H     -5.52352    4.50716    0.20557
H     -5.35969    2.74203   -0.05873
H     -4.62227    3.49957    1.38986
C     -2.85942    5.00305    0.12611
H     -1.92968    5.15048   -0.44266
H     -3.46261    5.92453    0.04934
H     -2.62544    4.81396    1.18218
C     -3.89266    4.05403   -1.84730
H     -4.43448    3.18057   -2.23883
H     -4.53365    4.94184   -1.98835
H     -2.95826    4.21437   -2.40315
H     -1.31125    1.00478   -2.27108
H     -2.51814    1.81556   -2.77573
H      0.14242    2.28054    0.88790
H     -3.85655    0.34126    0.75648
C      0.56937    2.97854   -0.86790
H      1.62954    3.14820   -0.61186
H      0.22960    3.24366   -1.88032
C     -3.79710   -0.61441   -0.98605
H     -3.05791   -1.39270   -0.73151
H     -4.81858   -1.00542   -0.85135
H     -3.66838   -0.30097   -2.02902
