54

O      7.24913   22.81498    6.60336
Fe     6.13612   22.20122    5.02012
P      5.94682   20.17251    6.09126
C      5.21606   18.87598    5.01776
C      4.19638   19.55202    4.12270
P      5.01453   21.04435    3.47049
C      3.76431   22.19324    2.83498
C      4.30303   23.59289    3.04629
N      4.95661   23.84259    4.35470
C      6.12004   20.50761    2.10339
C      7.55419   20.47052    2.60065
P      7.88343   22.04126    3.48612
C      9.49291   21.90351    4.28920
C      8.15584   23.24193    2.15455
H      3.83492   18.90706    3.30494
H      3.56264   22.01365    1.76651
H      2.83137   22.00295    3.37956
H      3.31906   19.89154    4.69751
H      6.00395   21.23907    1.28705
H      5.78105   19.53372    1.71411
H      8.27472   20.32082    1.77929
H      7.70407   19.65345    3.32396
H      8.96128   22.86713    1.50174
H      7.24910   23.39280    1.55326
H      8.47076   24.20391    2.58513
H     10.27172   21.66455    3.54746
H      9.71619   22.86853    4.76915
H      9.46639   21.13539    5.07163
H      5.07304   23.78584    2.28560
H      3.50897   24.34336    2.88762
C      4.00029   24.07033    5.45706
H      4.61027   24.37255    6.31652
H      3.35626   24.93130    5.20098
C      5.78908   25.06496    4.15322
H      6.49803   24.81001    3.35613
H      5.11937   25.84312    3.74127
H      4.77931   18.07052    5.63070
H      6.03270   18.43085    4.42676
C      4.93721   20.18963    7.58983
H      3.88514   20.39260    7.34842
H      5.01545   19.20601    8.08042
H      5.31217   20.96974    8.26540
C      7.56355   19.57063    6.61112
H      7.44195   18.63765    7.18489
H      8.19153   19.37373    5.73214
H      8.03793   20.34249    7.23417
C      6.52999   25.61249    5.34233
H      5.86131   26.00593    6.12073
H      7.19805   24.86326    5.78594
H      7.13907   26.46106    4.99420
C      3.17736   22.86298    5.83261
H      2.78979   22.97756    6.85526
H      2.31582   22.69758    5.17337
H      3.81200   21.95991    5.81425
