29

O     -2.50180    2.15361    1.75266
Fe    -2.38026    2.18739    0.23264
N     -3.63376    3.85270   -0.07855
O     -1.93534    1.69862   -2.01175
N     -0.29082    2.48012    0.31011
O     -3.64630    0.53888    0.18041
C     -4.88198    3.63053    0.66938
H     -5.55089    4.49955    0.54783
H     -5.38706    2.73442    0.28353
H     -4.64964    3.49196    1.73212
C     -2.88679    4.99544    0.46837
H     -1.95705    5.14287   -0.10040
H     -3.48998    5.91692    0.39160
H     -2.65281    4.80635    1.52444
C     -3.92003    4.04642   -1.50504
H     -4.46185    3.17296   -1.89657
H     -4.56102    4.93423   -1.64609
H     -2.98563    4.20676   -2.06089
H     -1.31125    1.00478   -2.27108
H     -2.51814    1.81556   -2.77573
H      0.11505    2.27293    1.23016
H     -3.88392    0.33365    1.09874
C      0.54200    2.97093   -0.52564
H      1.60217    3.14059   -0.26960
H      0.20223    3.23605   -1.53806
C     -3.82447   -0.62202   -0.64379
H     -3.08528   -1.40031   -0.38925
H     -4.84595   -1.01303   -0.50909
H     -3.69575   -0.30858   -1.68676
