23

O      0.24282    0.00840   -1.86841
O     -0.34171   -2.14590   -0.36927
O      0.07797    2.13762   -0.25050
P      2.35403   -0.04575   -0.04510
N     -2.20104    0.34554   -0.90683
O     -0.50235   -0.00774    1.78455
H     -0.29125   -2.72988    0.40104
H     -0.04963   -2.67424   -1.12796
H      0.21245    2.33993    0.69112
H      3.23860    0.03464   -1.15189
H      2.81400   -1.24159    0.56177
H     -2.62190    0.99988   -0.24108
H     -2.37945    0.75412   -1.82960
H     -1.32007   -0.07150    2.31196
Fe    -0.06641   -0.01132   -0.74889
H      2.89059    0.94173    0.81019
H     -2.76684   -0.50820   -0.86959
N      0.63723   -0.17022    2.58810
H      0.63611    0.57358    3.29585
H      0.55295   -1.05986    3.09300
N      1.30087    2.56617   -0.86762
H      1.15845    3.56836   -1.05404
H      1.24400    2.10899   -1.78554
