52

O      7.53871   23.21900    6.12724
Fe     6.21058   22.03930    4.84315
N      5.86290   20.30941    5.96381
C      5.60705   19.13532    5.09706
C      4.53630   19.41192    4.05706
P      4.94642   21.03055    3.35953
C      3.55270   22.11249    2.96896
C      4.12938   23.50590    3.13089
N      4.87411   23.67058    4.40309
C      5.98298   20.74764    1.83629
C      7.39764   20.57152    2.37718
N      7.75372   21.55382    3.41136
C      8.99563   21.15223    4.08227
C      7.92924   22.88603    2.82339
H      4.51444   18.65159    3.25983
H      3.18123   21.93955    1.94548
H      2.71995   21.90966    3.65962
H      3.52548   19.45077    4.49119
H      5.90899   21.69817    1.28241
H      8.12723   20.61586    1.54830
H      7.48197   19.56963    2.82397
H      8.72617   22.87287    2.05874
H      6.99515   23.21269    2.34961
H      8.20437   23.59120    3.61837
H      9.83873   21.16686    3.37021
H      9.19434   21.84530    4.90946
H      8.88959   20.13197    4.47044
H      4.83788   23.71425    2.31519
H      3.33867   24.27475    3.06713
C      3.94909   23.67165    5.54307
H      4.52285   23.77648    6.47218
H      3.24346   24.51712    5.46510
H      3.37458   22.73970    5.57108
C      5.58764   24.95778    4.37902
H      6.17912   25.05976    5.29569
H      6.26114   24.99795    3.51622
H      4.86265   25.78575    4.30221
H      5.31907   18.29124    5.74744
H      6.55916   18.87137    4.61750
C      4.64568   20.56680    6.83331
H      3.84172   20.85229    6.14124
H      4.91648   21.45402    7.42512
C      7.00263   20.01463    6.84497
H      6.77911   19.12097    7.44917
H      7.89971   19.82660    6.24710
H      7.18952   20.87281    7.49991
N      5.47326   19.68827    1.04539
H      5.38851   19.89786    0.05541
H      5.94795   18.79908    1.17188
N      4.29383   19.45112    7.60764
H      3.36933   19.06816    7.44978
H      4.50371   19.50542    8.59796
