29

O     11.72260    7.14537   13.35868
Fe    13.56956    7.56239   11.46662
N     15.03797    7.82598    9.74166
N     12.43108    8.34426    9.94099
O     15.12118    8.65470   12.31526
N     14.13701    5.63219   11.03644
C     14.52132    8.94426    8.92272
H     14.86977    8.84233    7.87702
C     13.02413    8.89583    8.95023
C     16.33257    8.05317   10.37011
H     16.79798    7.07648   10.59818
H     17.05591    8.57404    9.72016
C     16.20564    8.71822   11.71877
C     15.00212    6.55973    9.00718
H     14.21228    6.59288    8.23339
H     15.93811    6.36389    8.45080
C     14.65921    5.41109    9.88937
H     12.46863    9.40602    8.14521
H     14.83348    4.38918    9.50992
H     13.87832    4.80696   11.58705
H     11.40733    8.39787    9.94983
C     14.91562   10.33316    9.41248
H     14.58359   10.50810   10.44544
H     15.99904   10.49370    9.32757
H     14.43780   11.09291    8.77497
C     17.37884    9.38344   12.30508
H     17.25959    9.52522   13.38779
H     18.31061    8.84583   12.06426
H     17.47013   10.37905   11.82832
