24

O     -0.17181    0.63720   -2.57438
N      2.18755    0.35467   -1.19116
H      2.45798    0.36014   -2.17917
H      2.58246   -0.49409   -0.77523
Fe     0.06287    0.35590   -1.09378
H      2.66283    1.13878   -0.73795
P      0.27629    3.03788   -0.55478
H      1.11728    3.57301   -1.56651
H     -0.87528    3.83357   -0.80306
H      0.79082    3.72520    0.58078
P     -0.20068   -2.18094   -1.32815
H     -0.75509   -2.53322   -2.58381
H      0.94590   -3.01171   -1.28481
H     -1.05685   -2.89094   -0.44426
P     -2.20448    0.77488   -0.69335
H     -2.81572    1.61171   -1.67285
H     -2.98651   -0.40329   -0.79575
P      0.08453   -0.15802    1.24729
H      0.11564    0.87689    2.21931
H     -0.99970   -0.93036    1.73604
N     -2.51399    1.26184    0.88911
H     -2.18069    2.19456    1.13145
H     -3.46656    1.13072    1.23856
Br     1.80093   -1.38166    1.78123
