23

O      0.21628   -0.45623   -1.78430
O     -0.50571   -2.25344   -0.18146
O      0.18933    2.08207   -0.28257
P      2.30972   -0.55754    0.05634
N     -2.19587    0.23034   -0.87573
O     -0.47882    0.27163    1.69224
H     -0.94890   -2.66333    0.57558
H     -0.38307   -2.94274   -0.85130
H      3.16724    0.33118   -0.64201
H      2.77127   -1.79303   -0.46383
H     -2.38066    0.96476   -1.56430
H     -2.70932   -0.59236   -1.20552
H     -0.05123   -0.17854    2.43422
H     -0.23636    1.24145    1.77340
Fe    -0.09751   -0.21637   -0.62766
H      2.94239   -0.56589    1.32942
H     -2.64655    0.51834   -0.00242
N      0.24389    2.71179    0.98275
H      1.19077    3.09130    1.11489
H     -0.41483    3.50186    0.97497
N      0.49817    2.81617   -1.41346
H     -0.13512    3.62353   -1.46170
H      1.46051    3.16516   -1.32741
