29

O     -2.53319    2.14488    2.14525
Fe    -2.34887    2.19612   -0.15995
N     -3.60237    3.86143   -0.47114
O     -1.93534    1.69862   -2.01175
N     -0.25943    2.48885   -0.08248
O     -3.61491    0.54761   -0.21218
C     -4.85059    3.63926    0.27679
H     -5.51950    4.50828    0.15524
H     -5.35567    2.74315   -0.10906
H     -4.61825    3.50069    1.33953
C     -2.85540    5.00417    0.07578
H     -1.92566    5.15160   -0.49299
H     -3.45859    5.92565   -0.00099
H     -2.62142    4.81508    1.13185
C     -3.88864    4.05515   -1.89763
H     -4.43046    3.18169   -2.28916
H     -4.52963    4.94296   -2.03868
H     -2.95424    4.21549   -2.45348
H     -1.31125    1.00478   -2.27108
H     -2.51814    1.81556   -2.77573
H      0.14644    2.28166    0.83757
H     -3.85253    0.34238    0.70615
C      0.57339    2.97966   -0.91823
H      1.63356    3.14932   -0.66219
H      0.23362    3.24478   -1.93065
C     -3.79308   -0.61329   -1.03638
H     -3.05389   -1.39158   -0.78184
H     -4.81456   -1.00430   -0.90168
H     -3.66436   -0.29985   -2.07935
