23

O      0.27291   -0.08453   -2.08684
O     -0.52170   -2.07818   -0.23040
O      0.08708    2.13902   -0.31843
P      2.20016   -0.31216    0.02380
N     -2.36946    0.33782   -0.76714
O     -0.64925    0.13074    1.73012
H     -0.44904   -2.37325    0.69366
H      0.25540    2.43204    0.59357
H      3.05628    0.63708   -0.58531
H      2.71447   -1.54146   -0.45672
H     -2.72218    1.22667   -0.39894
H     -2.60061    0.35279   -1.76558
H      0.00201    0.06919    2.44469
H     -1.49736    0.26955    2.17863
Fe    -0.23583    0.02535   -0.54612
H      2.71549   -0.31391    1.34832
H     -2.96238   -0.39634   -0.36769
N      1.16517    2.69351   -1.07327
H      0.81768    3.60816   -1.39149
H      1.18033    2.09519   -1.90674
N      0.34449   -2.95293   -0.95283
H      0.52376   -2.42326   -1.81327
H     -0.25295   -3.74360   -1.22961
