36

O      7.85038   22.67771    6.93789
Fe     5.95853   21.69560    4.91393
N      5.18520   19.99215    5.68900
C      5.39810   18.99199    4.61304
C      4.41315   19.19271    3.46636
C      3.54256   21.71007    2.87219
C      4.27127   23.03637    3.08857
N      4.74378   23.26027    4.46750
C      5.53760   20.62032    1.58961
C      6.93627   20.61925    2.14471
O      7.09447   21.55407    3.24771
H      4.59129   18.32666    2.80938
H      3.01770   21.92850    1.92670
H      3.40769   19.01165    3.87950
H      5.37617   21.53358    0.99523
H      5.55795   19.80530    0.84571
H      7.64746   20.92600    1.36052
H      7.23867   19.62011    2.50068
H      5.13990   23.13648    2.42205
H      3.57363   23.85049    2.82585
H      6.43963   19.13836    4.27308
C      4.32262   20.39728    2.50298
H      3.58876   19.96884    1.80137
H      5.70317   19.72758    6.53377
H      4.19628   20.00968    5.95949
H      8.03220   21.77810    3.36248
H      5.24226   24.15272    4.54778
H      3.94949   23.33052    5.11266
C      2.45209   21.49570    3.90651
H      1.79924   22.38016    3.98117
H      1.80737   20.64603    3.63829
H      2.84897   21.29284    4.91513
C      5.29400   17.58550    5.17848
H      5.53214   16.84401    4.40159
H      5.99880   17.43580    6.01161
H      4.27133   17.38701    5.53790
