33

O      6.74983   22.51328    6.59172
Fe     6.37090   21.91497    5.37937
N      6.12751   19.84496    5.92128
C      5.81958   18.96237    4.78799
C      4.65703   19.39762    3.91123
C      4.07602   21.93937    3.84056
C      4.56863   23.31499    3.40933
N      5.87185   23.58293    4.03050
C      6.00119   20.87852    2.27719
C      7.40822   20.84595    2.81643
N      7.70993   21.32840    3.99708
H      4.54382   18.58609    3.17399
H      2.99796   21.88509    3.60999
H      3.71151   19.36272    4.48085
H      5.93373   21.80921    1.68810
H      5.94623   20.08336    1.51715
H      4.60650   23.39637    2.31328
H      3.83965   24.06966    3.74456
H      5.60474   17.94270    5.15295
H      6.73318   18.87997    4.18241
C      4.72349   20.71632    3.12045
H      3.98993   20.56109    2.31284
H      7.00139   19.54280    6.36159
H      5.42627   19.74589    6.66033
H      8.70600   21.30019    4.22493
H      6.62100   23.65689    3.34257
H      5.87275   24.46732    4.54193
N      8.32338   20.35493    1.97917
H      9.31468   20.36529    2.20111
H      8.06842   20.00626    1.06157
N      4.26027   21.89023    5.29522
H      3.82652   22.69735    5.75217
H      3.80516   21.06866    5.69229
