36

O      7.59683   22.54609    6.66664
Fe     6.21208   21.82722    5.18518
N      5.43875   20.12377    5.96025
C      5.65165   19.12361    4.88429
C      4.66670   19.32433    3.73761
C      3.79611   21.84169    3.14344
C      4.52482   23.16799    3.35982
N      4.99733   23.39189    4.73875
C      5.79115   20.75194    1.86086
C      7.18982   20.75087    2.41596
O      7.34802   21.68569    3.51896
H      4.84484   18.45828    3.08063
H      3.27125   22.06012    2.19795
H      3.66124   19.14327    4.15075
H      5.62972   21.66520    1.26648
H      5.81150   19.93692    1.11696
H      7.90101   21.05762    1.63177
H      7.49222   19.75173    2.77193
H      5.39345   23.26810    2.69330
H      3.82718   23.98211    3.09710
H      6.69318   19.26998    4.54433
C      4.57617   20.52890    2.77423
H      3.84231   20.10046    2.07262
H      5.95672   19.85920    6.80502
H      4.44983   20.14130    6.23074
H      8.28575   21.90972    3.63373
H      5.49581   24.28434    4.81903
H      4.20304   23.46214    5.38391
C      2.70564   21.62732    4.17776
H      2.05279   22.51178    4.25242
H      2.06092   20.77765    3.90954
H      3.10252   21.42446    5.18638
C      5.54755   17.71712    5.44973
H      5.78569   16.97563    4.67284
H      6.25235   17.56742    6.28286
H      4.52488   17.51863    5.80915
