12

H 0.000000 0.000000 0.000000
H 0.000000 0.000000 1.618182
H 0.000000 0.000000 3.236364
H 0.000000 0.000000 4.854545
H 0.000000 0.000000 6.472727
H 0.000000 0.000000 8.090909
H 0.000000 0.000000 9.709091
H 0.000000 0.000000 11.327273
H 0.000000 0.000000 12.945455
H 0.000000 0.000000 14.563636
H 0.000000 0.000000 16.181818
H 0.000000 0.000000 17.800000
