23

O      0.29122    0.01148   -2.04364
O     -0.34171   -2.14590   -0.36927
O      0.07797    2.13762   -0.25050
P      2.30563   -0.04883    0.13013
N     -2.24944    0.34246   -0.73160
O     -0.50235   -0.00774    1.78455
H     -0.29125   -2.72988    0.40104
H     -0.04963   -2.67424   -1.12796
H      0.21245    2.33993    0.69112
H      3.19020    0.03156   -0.97666
H      2.76560   -1.24467    0.73700
H     -2.67030    0.99680   -0.06585
H     -2.42785    0.75104   -1.65437
H     -1.32007   -0.07150    2.31196
Fe    -0.11481   -0.01440   -0.57366
H      2.84219    0.93865    0.98542
H     -2.81524   -0.51128   -0.69436
N      0.63723   -0.17022    2.58810
H      0.63611    0.57358    3.29585
H      0.55295   -1.05986    3.09300
N      1.30087    2.56617   -0.86762
H      1.15845    3.56836   -1.05404
H      1.24400    2.10899   -1.78554
