54

O      7.48723   22.94628    6.94206
Fe     5.89802   22.06992    4.68142
P      5.70872   20.04121    5.75256
C      4.97796   18.74468    4.67906
C      3.95828   19.42072    3.78400
P      4.77643   20.91305    3.13179
C      3.52621   22.06194    2.49628
C      4.06493   23.46159    2.70759
N      4.71851   23.71129    4.01600
C      5.88194   20.37631    1.76469
C      7.31609   20.33922    2.26195
P      7.64533   21.90996    3.14742
C      9.25481   21.77221    3.95050
C      7.91774   23.11063    1.81585
H      3.59682   18.77576    2.96624
H      3.32454   21.88235    1.42781
H      2.59327   21.87165    3.04086
H      3.08096   19.76024    4.35881
H      5.76585   21.10777    0.94835
H      5.54295   19.40242    1.37541
H      8.03662   20.18952    1.44059
H      7.46597   19.52215    2.98526
H      8.72318   22.73583    1.16304
H      7.01100   23.26150    1.21456
H      8.23266   24.07261    2.24643
H     10.03362   21.53325    3.20876
H      9.47809   22.73723    4.43045
H      9.22829   21.00409    4.73293
H      4.83494   23.65454    1.94690
H      3.27087   24.21206    2.54892
C      3.76219   23.93903    5.11836
H      4.37217   24.24125    5.97782
H      3.11816   24.80000    4.86228
C      5.55098   24.93366    3.81452
H      6.25993   24.67871    3.01743
H      4.88127   25.71182    3.40257
H      4.54121   17.93922    5.29200
H      5.79460   18.29955    4.08806
C      4.69911   20.05833    7.25113
H      3.64704   20.26130    7.00972
H      4.77735   19.07471    7.74172
H      5.07407   20.83844    7.92670
C      7.32545   19.43933    6.27242
H      7.20385   18.50635    6.84619
H      7.95343   19.24243    5.39344
H      7.79983   20.21119    6.89547
C      6.29189   25.48119    5.00363
H      5.62321   25.87463    5.78203
H      6.95995   24.73196    5.44724
H      6.90097   26.32976    4.65550
C      2.93926   22.73168    5.49391
H      2.55169   22.84626    6.51656
H      2.07772   22.56628    4.83467
H      3.57390   21.82861    5.47555
