29

O     -2.51629    2.14958    1.93386
Fe    -2.36577    2.19142    0.05144
N     -3.61927    3.85673   -0.25975
O     -1.93534    1.69862   -2.01175
N     -0.27633    2.48415    0.12891
O     -3.63181    0.54291   -0.00079
C     -4.86749    3.63456    0.48818
H     -5.53640    4.50358    0.36663
H     -5.37257    2.73845    0.10233
H     -4.63515    3.49599    1.55092
C     -2.87230    4.99947    0.28717
H     -1.94256    5.14690   -0.28160
H     -3.47549    5.92095    0.21040
H     -2.63832    4.81038    1.34324
C     -3.90554    4.05045   -1.68624
H     -4.44736    3.17699   -2.07777
H     -4.54653    4.93826   -1.82729
H     -2.97114    4.21079   -2.24209
H     -1.31125    1.00478   -2.27108
H     -2.51814    1.81556   -2.77573
H      0.12954    2.27696    1.04896
H     -3.86943    0.33768    0.91754
C      0.55649    2.97496   -0.70684
H      1.61666    3.14462   -0.45080
H      0.21672    3.24008   -1.71926
C     -3.80998   -0.61799   -0.82499
H     -3.07079   -1.39628   -0.57045
H     -4.83146   -1.00900   -0.69029
H     -3.68126   -0.30455   -1.86796
