54

O      7.28235   22.83330    6.65062
Fe     6.10290   22.18290    4.97286
P      5.91360   20.15419    6.04400
C      5.18284   18.85766    4.97050
C      4.16316   19.53370    4.07544
P      4.98131   21.02603    3.42323
C      3.73109   22.17492    2.78772
C      4.26981   23.57457    2.99903
N      4.92339   23.82427    4.30744
C      6.08682   20.48929    2.05613
C      7.52097   20.45220    2.55339
P      7.85021   22.02294    3.43886
C      9.45969   21.88519    4.24194
C      8.12262   23.22361    2.10729
H      3.80170   18.88874    3.25768
H      3.52942   21.99533    1.71925
H      2.79815   21.98463    3.33230
H      3.28584   19.87322    4.65025
H      5.97073   21.22075    1.23979
H      5.74783   19.51540    1.66685
H      8.24150   20.30250    1.73203
H      7.67085   19.63513    3.27670
H      8.92806   22.84881    1.45448
H      7.21588   23.37448    1.50600
H      8.43754   24.18559    2.53787
H     10.23850   21.64623    3.50020
H      9.68297   22.85021    4.72189
H      9.43317   21.11707    5.02437
H      5.03982   23.76752    2.23834
H      3.47575   24.32504    2.84036
C      3.96707   24.05201    5.40980
H      4.57705   24.35423    6.26926
H      3.32304   24.91298    5.15372
C      5.75586   25.04664    4.10596
H      6.46481   24.79169    3.30887
H      5.08615   25.82480    3.69401
H      4.74609   18.05220    5.58344
H      5.99948   18.41253    4.37950
C      4.90399   20.17131    7.54257
H      3.85192   20.37428    7.30116
H      4.98223   19.18769    8.03316
H      5.27895   20.95142    8.21814
C      7.53033   19.55231    6.56386
H      7.40873   18.61933    7.13763
H      8.15831   19.35541    5.68488
H      8.00471   20.32417    7.18691
C      6.49677   25.59417    5.29507
H      5.82809   25.98761    6.07347
H      7.16483   24.84494    5.73868
H      7.10585   26.44274    4.94694
C      3.14414   22.84466    5.78535
H      2.75657   22.95924    6.80800
H      2.28260   22.67926    5.12611
H      3.77878   21.94159    5.76699
