17

O      0.00000    0.00000    2.12828
Fe     0.00000    0.00000   -0.52828
O     -0.02532   -2.04942   -0.57005
O      0.01885    2.04941   -0.57377
O     -2.09136   -0.00340   -0.71858
O      2.09172    0.00000   -0.71453
O      0.00000    0.00000   -2.57828
H      0.26040   -2.63210   -1.29567
H      0.04961   -2.57039    0.25009
H     -0.25655    2.63228   -1.30315
H     -0.05040    2.57471    0.24404
H     -2.58023    0.46315   -0.01431
H     -2.52460   -0.87680   -0.75635
H      2.52747    0.87055   -0.77908
H      2.57839   -0.44571    0.00464
H     -0.77522    0.08407   -3.15891
H      0.77001   -0.10212   -3.16287
