24

O     -0.17492    0.64092   -2.59399
N      2.19066    0.35095   -1.17155
H      2.46109    0.35642   -2.15956
H      2.58557   -0.49781   -0.75562
Fe     0.06598    0.35218   -1.07417
H      2.66594    1.13506   -0.71834
P      0.27629    3.03788   -0.55478
H      1.11728    3.57301   -1.56651
H     -0.87528    3.83357   -0.80306
H      0.79082    3.72520    0.58078
P     -0.20068   -2.18094   -1.32815
H     -0.75509   -2.53322   -2.58381
H      0.94590   -3.01171   -1.28481
H     -1.05685   -2.89094   -0.44426
P     -2.20137    0.77116   -0.67374
H     -2.81261    1.60799   -1.65324
H     -2.98340   -0.40701   -0.77614
P      0.08764   -0.16174    1.26690
H      0.11875    0.87317    2.23892
H     -0.99659   -0.93408    1.75565
N     -2.51088    1.25812    0.90872
H     -2.17758    2.19084    1.15106
H     -3.46345    1.12700    1.25817
Br     1.80404   -1.38538    1.80084
