18

H 0.000000 0.000000 0.000000
H 0.000000 0.000000 1.739394
H 0.000000 0.000000 3.478788
H 0.000000 0.000000 5.218182
H 0.000000 0.000000 6.957576
H 0.000000 0.000000 8.696970
H 0.000000 0.000000 10.436364
H 0.000000 0.000000 12.175758
H 0.000000 0.000000 13.915152
H 0.000000 0.000000 15.654545
H 0.000000 0.000000 17.393939
H 0.000000 0.000000 19.133333
H 0.000000 0.000000 20.872727
H 0.000000 0.000000 22.612121
H 0.000000 0.000000 24.351515
H 0.000000 0.000000 26.090909
H 0.000000 0.000000 27.830303
H 0.000000 0.000000 29.569697
