52

O      7.66112   23.32773    6.24558
Fe     6.08817   21.93057    4.72481
N      5.74049   20.20068    5.84547
C      5.48464   19.02659    4.97872
C      4.41389   19.30319    3.93872
P      4.82401   20.92182    3.24119
C      3.43029   22.00376    2.85062
C      4.00697   23.39717    3.01255
N      4.75170   23.56185    4.28475
C      5.86057   20.63891    1.71795
C      7.27523   20.46279    2.25884
N      7.63131   21.44509    3.29302
C      8.87322   21.04350    3.96393
C      7.80683   22.77730    2.70505
H      4.39203   18.54286    3.14149
H      3.05882   21.83082    1.82714
H      2.59754   21.80093    3.54128
H      3.40307   19.34204    4.37285
H      5.78658   21.58944    1.16407
H      8.00482   20.50713    1.42996
H      7.35956   19.46090    2.70563
H      8.60376   22.76414    1.94040
H      6.87274   23.10396    2.23127
H      8.08196   23.48247    3.50003
H      9.71632   21.05813    3.25187
H      9.07193   21.73657    4.79112
H      8.76718   20.02324    4.35210
H      4.71547   23.60552    2.19685
H      3.21626   24.16602    2.94879
C      3.82668   23.56292    5.42473
H      4.40044   23.66775    6.35384
H      3.12105   24.40839    5.34676
H      3.25217   22.63097    5.45274
C      5.46523   24.84905    4.26068
H      6.05671   24.95103    5.17735
H      6.13873   24.88922    3.39788
H      4.74024   25.67702    4.18387
H      5.19666   18.18251    5.62910
H      6.43675   18.76264    4.49916
C      4.52327   20.45807    6.71497
H      3.71931   20.74356    6.02290
H      4.79407   21.34529    7.30678
C      6.88022   19.90590    6.72663
H      6.65670   19.01224    7.33083
H      7.77730   19.71787    6.12876
H      7.06711   20.76408    7.38157
N      5.35085   19.57954    0.92705
H      5.26610   19.78913   -0.06293
H      5.82554   18.69035    1.05354
N      4.17142   19.34239    7.48930
H      3.24692   18.95943    7.33144
H      4.38130   19.39669    8.47962
