17

O      0.00000    0.00000    1.56263
Fe     0.00000    0.00000    0.03737
O     -0.02532   -2.04942   -0.00439
O      0.01885    2.04941   -0.00811
O     -2.09136   -0.00340   -0.15292
O      2.09172    0.00000   -0.14887
O      0.00000    0.00000   -2.01263
H      0.26040   -2.63210   -0.73001
H      0.04961   -2.57039    0.81575
H     -0.25655    2.63228   -0.73749
H     -0.05040    2.57471    0.80970
H     -2.58023    0.46315    0.55134
H     -2.52460   -0.87680   -0.19070
H      2.52747    0.87055   -0.21343
H      2.57839   -0.44571    0.57030
H     -0.77522    0.08407   -2.59325
H      0.77001   -0.10212   -2.59721
