37

O      0.89599    0.38891    3.27693
N      0.19149   -1.99757    0.77815
C      1.09632   -1.94586   -0.38513
H      0.54125   -1.50191   -1.22627
H      1.38988   -2.96634   -0.68984
C     -1.16935   -2.45549    0.43629
H     -1.64387   -2.72123    1.39231
H     -1.13557   -3.36248   -0.19301
C      2.30659   -1.10407   -0.05456
H      2.89974   -1.58263    0.73918
H      2.96769   -1.01433   -0.93253
C     -1.96084   -1.37172   -0.24475
H     -3.01052   -1.69058   -0.35978
H     -1.56757   -1.11264   -1.24422
C      1.73829    1.26994   -0.57265
H      2.72268    1.59043   -0.95686
H      1.17872    0.86712   -1.43062
C     -2.45288    0.99837    0.13285
H     -2.93509    1.47917    0.99594
H     -3.21032    0.79930   -0.64032
C     -1.32329    1.84349   -0.40272
H     -0.87489    1.37604   -1.29134
H     -1.68891    2.84172   -0.70799
C      1.01656    2.44030    0.05664
H      1.60608    2.83649    0.89807
H      0.86663    3.26214   -0.66457
N     -0.26877    1.97780    0.61591
Fe    -0.00230    0.02987    1.46896
N      1.87533    0.21262    0.42952
O     -1.89528   -0.23166    0.61499
H      2.50397    0.53197    1.16937
N      0.65737   -2.72982    1.88400
H      1.48693   -2.28118    2.26901
H      0.90174   -3.68639    1.60569
N     -0.77487    2.67640    1.72072
H     -0.99479    3.64801    1.47479
H     -0.07801    2.66679    2.46619
