18

O      0.80133   -0.10200   -2.54425
O     -0.38530   -2.06952    0.26473
O      0.34678    2.08191    0.31022
N      2.18358   -0.38539    0.60934
O     -1.87800    0.34074   -0.54394
O     -0.33312    0.05252    1.71435
H     -0.60876   -2.48918    1.11560
H      0.26753    2.53761    1.16811
H      2.77876    0.35048    0.21504
H      2.50154   -1.25493    0.16887
H     -2.16696    1.17628   -0.94383
H     -2.43112   -0.34195   -0.95570
H      0.09815   -0.02801    2.57767
H     -1.27174    0.21562    1.89506
Fe     0.15740   -0.02121    0.05266
H      2.42842   -0.45619    1.60088
Br     1.15630    3.28186   -0.84755
Br     0.01756   -3.44843   -0.90695
