23

O      0.20339   -0.06952   -1.87631
O     -0.52170   -2.07818   -0.23040
O      0.08708    2.13902   -0.31843
P      2.26968   -0.32717   -0.18673
N     -2.29994    0.32281   -0.97767
O     -0.64925    0.13074    1.73012
H     -0.44904   -2.37325    0.69366
H      0.25540    2.43204    0.59357
H      3.12580    0.62207   -0.79584
H      2.78399   -1.55647   -0.66725
H     -2.65266    1.21166   -0.60947
H     -2.53109    0.33778   -1.97611
H      0.00201    0.06919    2.44469
H     -1.49736    0.26955    2.17863
Fe    -0.16631    0.01034   -0.75665
H      2.78501   -0.32892    1.13779
H     -2.89286   -0.41135   -0.57822
N      1.16517    2.69351   -1.07327
H      0.81768    3.60816   -1.39149
H      1.18033    2.09519   -1.90674
N      0.34449   -2.95293   -0.95283
H      0.52376   -2.42326   -1.81327
H     -0.25295   -3.74360   -1.22961
