24

O     -0.17337    0.63906   -2.58419
N      2.18911    0.35281   -1.18135
H      2.45954    0.35828   -2.16936
H      2.58402   -0.49595   -0.76542
Fe     0.06443    0.35404   -1.08397
H      2.66439    1.13692   -0.72814
P      0.27629    3.03788   -0.55478
H      1.11728    3.57301   -1.56651
H     -0.87528    3.83357   -0.80306
H      0.79082    3.72520    0.58078
P     -0.20068   -2.18094   -1.32815
H     -0.75509   -2.53322   -2.58381
H      0.94590   -3.01171   -1.28481
H     -1.05685   -2.89094   -0.44426
P     -2.20292    0.77302   -0.68354
H     -2.81416    1.60985   -1.66304
H     -2.98495   -0.40515   -0.78594
P      0.08609   -0.15988    1.25710
H      0.11720    0.87503    2.22912
H     -0.99814   -0.93222    1.74585
N     -2.51243    1.25998    0.89892
H     -2.17913    2.19270    1.14126
H     -3.46500    1.12886    1.24837
Br     1.80249   -1.38352    1.79104
