29

O     -2.51227    2.15070    1.88353
Fe    -2.36979    2.19030    0.10177
N     -3.62329    3.85561   -0.20942
O     -1.93534    1.69862   -2.01175
N     -0.28035    2.48303    0.17924
O     -3.63583    0.54179    0.04954
C     -4.87151    3.63344    0.53851
H     -5.54042    4.50246    0.41696
H     -5.37659    2.73733    0.15266
H     -4.63917    3.49487    1.60125
C     -2.87632    4.99835    0.33750
H     -1.94658    5.14578   -0.23127
H     -3.47951    5.91983    0.26073
H     -2.64234    4.80926    1.39357
C     -3.90956    4.04933   -1.63591
H     -4.45138    3.17587   -2.02744
H     -4.55055    4.93714   -1.77696
H     -2.97516    4.20967   -2.19176
H     -1.31125    1.00478   -2.27108
H     -2.51814    1.81556   -2.77573
H      0.12552    2.27584    1.09929
H     -3.87345    0.33656    0.96787
C      0.55247    2.97384   -0.65651
H      1.61264    3.14350   -0.40047
H      0.21270    3.23896   -1.66893
C     -3.81400   -0.61911   -0.77466
H     -3.07481   -1.39740   -0.52012
H     -4.83548   -1.01012   -0.63996
H     -3.68528   -0.30567   -1.81763
