22

O      0.66361   -1.00045   -2.67604
N      2.79878   -0.75498   -0.41972
H      3.21989   -0.62371   -1.34293
H      3.07628   -1.69324   -0.11662
Fe     0.64511   -0.39516   -0.33908
H      3.26331   -0.09277    0.20717
P      0.74111    1.87227   -0.73265
H      0.11509    2.29772   -1.93423
H      0.11486    2.72500    0.21447
P     -0.57470   -2.34456   -0.09538
H     -1.47043   -2.62214   -1.15735
H      0.29240   -3.46754   -0.15132
H     -1.35050   -2.65292    1.05272
P     -1.98622    0.47071   -0.94972
H     -2.37131    0.04025   -2.24560
H     -2.94231   -0.23275   -0.16537
H     -2.60801    1.75281   -0.92983
P      0.54738   -0.00590    1.91634
H      0.88970   -1.09042    2.77304
H     -0.72849    0.32069    2.45323
Br     1.81812    1.57504    2.68327
Br     2.72699    2.73304   -0.88600
