23

O      0.22867   -0.07498   -1.95287
O     -0.52170   -2.07818   -0.23040
O      0.08708    2.13902   -0.31843
P      2.24440   -0.32171   -0.11017
N     -2.32522    0.32827   -0.90111
O     -0.64925    0.13074    1.73012
H     -0.44904   -2.37325    0.69366
H      0.25540    2.43204    0.59357
H      3.10052    0.62753   -0.71928
H      2.75871   -1.55101   -0.59069
H     -2.67794    1.21712   -0.53291
H     -2.55637    0.34324   -1.89955
H      0.00201    0.06919    2.44469
H     -1.49736    0.26955    2.17863
Fe    -0.19159    0.01580   -0.68009
H      2.75973   -0.32346    1.21435
H     -2.91814   -0.40589   -0.50166
N      1.16517    2.69351   -1.07327
H      0.81768    3.60816   -1.39149
H      1.18033    2.09519   -1.90674
N      0.34449   -2.95293   -0.95283
H      0.52376   -2.42326   -1.81327
H     -0.25295   -3.74360   -1.22961
