23

O     11.60754    6.94333   13.43359
Fe    13.47225    7.49539   11.42192
N     15.01497    7.82213    9.73315
N     12.39280    8.47071    9.98245
O     14.90620    8.91032   12.19996
N     14.18995    5.63550   11.04957
C     14.50025    8.93540    8.93092
H     14.94801    9.88794    9.27237
H     14.80689    8.86163    7.87212
C     13.02561    9.07302    9.04608
C     16.25826    8.10234   10.41909
H     16.68425    7.14831   10.78718
C     16.00681    8.91990   11.66706
C     15.06169    6.55582    9.00493
H     14.27403    6.53940    8.23227
H     16.02107    6.41963    8.47499
C     14.78088    5.40553    9.92768
H     12.51150    9.72929    8.32234
H     16.85214    9.49138   12.10804
H     13.97502    4.82049   11.63271
H     11.38098    8.63283   10.02376
Br    17.63141    8.89737    9.32508
Br    15.25523    3.73850    9.34087
