20

O      0.29471   -0.36858   -2.60886
N     -0.26180   -2.08352    0.69546
O      0.42194    2.04291   -0.36005
N      2.29334   -0.37511    0.03037
N     -2.07632    0.24138   -0.39780
O     -0.02537    0.37045    1.79796
H      0.45361   -2.46608    1.32156
H     -0.26521   -2.67490   -0.14102
H      0.42189    2.59779    0.43432
H      0.57429    2.62418   -1.11957
H      2.79194    0.52507    0.02532
H      2.70941   -0.92910   -0.73049
H     -2.29844    1.24320   -0.47458
H     -2.47332   -0.19810   -1.23932
H      0.65621    0.06580    2.41764
H     -0.87059    0.28213    2.26615
Fe     0.07941   -0.02257    0.20012
H     -1.15985   -2.23568    1.16505
Cl    -3.01078   -0.35147    0.93746
Cl     2.75479   -1.16524    1.50374
