29

O     12.04320    7.21776   13.03025
Fe    13.24896    7.49000   11.79505
N     14.71737    7.75359   10.07009
N     12.11048    8.27187   10.26942
O     14.80058    8.58231   12.64369
N     13.81641    5.55980   11.36487
C     14.20072    8.87187    9.25115
H     14.54917    8.76994    8.20545
C     12.70353    8.82344    9.27866
C     16.01197    7.98078   10.69854
H     16.47738    7.00409   10.92661
H     16.73531    8.50165   10.04859
C     15.88504    8.64583   12.04720
C     14.68152    6.48734    9.33561
H     13.89168    6.52049    8.56182
H     15.61751    6.29150    8.77923
C     14.33861    5.33870   10.21780
H     12.14803    9.33363    8.47364
H     14.51288    4.31679    9.83835
H     13.55772    4.73457   11.91548
H     11.08673    8.32548   10.27826
C     14.59502   10.26077    9.74091
H     14.26299   10.43571   10.77387
H     15.67844   10.42131    9.65600
H     14.11720   11.02052    9.10340
C     17.05824    9.31105   12.63351
H     16.93899    9.45283   13.71622
H     17.99001    8.77344   12.39269
H     17.14953   10.30666   12.15675
