33

O      6.94610   22.82320    7.21969
Fe     6.17463   21.60505    4.75140
N      5.93124   19.53504    5.29331
C      5.62331   18.65245    4.16002
C      4.46076   19.08770    3.28326
C      3.87975   21.62945    3.21259
C      4.37236   23.00507    2.78136
N      5.67558   23.27301    3.40253
C      5.80492   20.56860    1.64922
C      7.21195   20.53603    2.18846
N      7.51366   21.01848    3.36911
H      4.34755   18.27617    2.54602
H      2.80169   21.57517    2.98202
H      3.51524   19.05280    3.85288
H      5.73746   21.49929    1.06013
H      5.74996   19.77344    0.88918
H      4.41023   23.08645    1.68531
H      3.64338   23.75974    3.11659
H      5.40847   17.63278    4.52498
H      6.53691   18.57005    3.55444
C      4.52722   20.40640    2.49248
H      3.79366   20.25117    1.68487
H      6.80512   19.23288    5.73362
H      5.23000   19.43597    6.03236
H      8.50973   20.99027    3.59696
H      6.42473   23.34697    2.71460
H      5.67648   24.15740    3.91396
N      8.12711   20.04501    1.35120
H      9.11841   20.05537    1.57314
H      7.87215   19.69634    0.43360
N      4.06400   21.58031    4.66725
H      3.63025   22.38743    5.12420
H      3.60889   20.75874    5.06432
