53

O      5.88448   23.15285    7.29687
Fe     6.38913   22.42969    5.42333
P      6.05167   20.27751    5.95130
C      5.81617   18.99404    4.67619
C      4.74902   19.16990    3.59924
C      4.24205   21.64139    3.55799
C      4.47577   23.04261    2.99563
P      5.10783   23.98625    4.41801
C      5.93715   20.63531    1.85151
C      7.32033   20.71823    2.46863
P      7.69382   22.06767    3.63224
C      9.30076   21.58681    4.33094
C      8.12661   23.47329    2.56892
H      4.84483   18.30579    2.92221
H      5.00354   21.61029    4.46122
H      3.76757   19.03601    4.08004
H      5.77329   21.50136    1.19104
H      5.96246   19.77563    1.16144
H      8.06980   20.82985    1.66571
H      7.58700   19.79058    2.98900
H      8.95902   23.18213    1.90848
H      7.27551   23.77837    1.94568
H      8.44567   24.32235    3.19089
H     10.03153   21.40988    3.52491
H      9.67874   22.39113    4.98149
H      9.18370   20.67088    4.92687
H      5.26689   23.03134    2.23560
H      3.57577   23.47732    2.53074
C      3.69935   24.28866    5.50360
H      4.06313   24.84778    6.37834
H      2.92686   24.87252    4.97771
H      3.28716   23.33337    5.85406
C      5.64631   25.62359    3.89084
H      6.05058   26.15657    4.76605
H      6.41641   25.56998    3.11256
H      4.77477   26.18022    3.50862
H      5.55596   18.09535    5.26455
H      6.80807   18.77537    4.25724
C      4.38524   20.33668    6.85032
H      3.69196   20.80690    6.13138
H      4.10474   19.27161    6.94161
C      7.17050   19.52572    7.15472
H      6.78330   18.53755    7.45293
H      8.18075   19.40794    6.73755
H      7.22455   20.18291    8.03281
C      4.71174   20.43475    2.73518
H      3.88643   20.27086    2.01774
N      4.37014   20.98099    8.09060
H      4.61119   21.97229    8.04727
H      4.84704   20.49987    8.84725
N      2.94586   21.48480    4.07280
H      2.30874   22.26322    3.95489
H      2.49306   20.59219    3.91163
