23

O      0.36150   -0.56724   -2.31961
O     -0.65093   -2.14243    0.35385
O      0.18933    2.08207   -0.28257
P      2.30972   -0.55754    0.05634
N     -2.34109    0.34135   -0.34042
O     -0.47882    0.27163    1.69224
H     -1.09412   -2.55232    1.11089
H     -0.52829   -2.83173   -0.31599
H      3.16724    0.33118   -0.64201
H      2.77127   -1.79303   -0.46383
H     -2.52588    1.07577   -1.02899
H     -2.85454   -0.48135   -0.67021
H     -0.05123   -0.17854    2.43422
H     -0.23636    1.24145    1.77340
Fe    -0.24273   -0.10536   -0.09235
H      2.94239   -0.56589    1.32942
H     -2.79177    0.62935    0.53289
N      0.24389    2.71179    0.98275
H      1.19077    3.09130    1.11489
H     -0.41483    3.50186    0.97497
N      0.49817    2.81617   -1.41346
H     -0.13512    3.62353   -1.46170
H      1.46051    3.16516   -1.32741
