22

O      0.65835   -0.82823   -2.01113
N      2.79878   -0.75498   -0.41972
H      3.21989   -0.62371   -1.34293
H      3.07628   -1.69324   -0.11662
Fe     0.65037   -0.56738   -1.00399
H      3.26331   -0.09277    0.20717
P      0.74637    1.70005   -1.39756
H      0.12035    2.12550   -2.59914
H      0.12012    2.55278   -0.45044
P     -0.56944   -2.51678   -0.76029
H     -1.46517   -2.79436   -1.82226
H      0.29766   -3.63976   -0.81623
H     -1.34524   -2.82514    0.38781
P     -1.98622    0.47071   -0.94972
H     -2.37131    0.04025   -2.24560
H     -2.94231   -0.23275   -0.16537
H     -2.60801    1.75281   -0.92983
P      0.55264   -0.17812    1.25143
H      0.89496   -1.26264    2.10813
H     -0.72323    0.14847    1.78832
Br     1.82338    1.40282    2.01836
Br     2.73225    2.56082   -1.55091
