37

O      0.81634    0.35708    3.11662
N      0.27114   -1.96574    0.93846
C      1.17597   -1.91403   -0.22482
H      0.62090   -1.47008   -1.06596
H      1.46953   -2.93451   -0.52953
C     -1.08970   -2.42366    0.59660
H     -1.56422   -2.68940    1.55262
H     -1.05592   -3.33065   -0.03270
C      2.38624   -1.07224    0.10575
H      2.97939   -1.55080    0.89949
H      3.04734   -0.98250   -0.77222
C     -1.88119   -1.33989   -0.08444
H     -2.93087   -1.65875   -0.19947
H     -1.48792   -1.08081   -1.08391
C      1.81794    1.30177   -0.41234
H      2.80233    1.62226   -0.79655
H      1.25837    0.89895   -1.27031
C     -2.37323    1.03020    0.29316
H     -2.85544    1.51100    1.15625
H     -3.13067    0.83113   -0.48001
C     -1.24364    1.87532   -0.24241
H     -0.79524    1.40787   -1.13103
H     -1.60926    2.87355   -0.54768
C      1.09621    2.47213    0.21695
H      1.68573    2.86832    1.05838
H      0.94628    3.29397   -0.50426
N     -0.18912    2.00963    0.77622
Fe     0.07735    0.06170    1.62927
N      1.95498    0.24445    0.58983
O     -1.81563   -0.19983    0.77530
H      2.58362    0.56380    1.32968
N      0.73702   -2.69799    2.04431
H      1.56658   -2.24935    2.42932
H      0.98139   -3.65456    1.76600
N     -0.69522    2.70823    1.88103
H     -0.91514    3.67984    1.63510
H      0.00164    2.69862    2.62650
