23

O      0.36651    0.01628   -2.31622
O     -0.34171   -2.14590   -0.36927
O      0.07797    2.13762   -0.25050
P      2.23034   -0.05363    0.40271
N     -2.32473    0.33766   -0.45902
O     -0.50235   -0.00774    1.78455
H     -0.29125   -2.72988    0.40104
H     -0.04963   -2.67424   -1.12796
H      0.21245    2.33993    0.69112
H      3.11491    0.02676   -0.70408
H      2.69031   -1.24947    1.00958
H     -2.74559    0.99200    0.20673
H     -2.50314    0.74624   -1.38179
H     -1.32007   -0.07150    2.31196
Fe    -0.19010   -0.01920   -0.30108
H      2.76690    0.93385    1.25800
H     -2.89053   -0.51608   -0.42178
N      0.63723   -0.17022    2.58810
H      0.63611    0.57358    3.29585
H      0.55295   -1.05986    3.09300
N      1.30087    2.56617   -0.86762
H      1.15845    3.56836   -1.05404
H      1.24400    2.10899   -1.78554
