24

O     -0.20445    0.67632   -2.78029
N      2.22019    0.31555   -0.98525
H      2.49062    0.32102   -1.97326
H      2.61510   -0.53321   -0.56932
Fe     0.09551    0.31678   -0.88787
H      2.69547    1.09966   -0.53204
P      0.27629    3.03788   -0.55478
H      1.11728    3.57301   -1.56651
H     -0.87528    3.83357   -0.80306
H      0.79082    3.72520    0.58078
P     -0.20068   -2.18094   -1.32815
H     -0.75509   -2.53322   -2.58381
H      0.94590   -3.01171   -1.28481
H     -1.05685   -2.89094   -0.44426
P     -2.17184    0.73576   -0.48744
H     -2.78308    1.57259   -1.46694
H     -2.95387   -0.44241   -0.58984
P      0.11717   -0.19714    1.45320
H      0.14828    0.83777    2.42522
H     -0.96706   -0.96948    1.94195
N     -2.48135    1.22272    1.09502
H     -2.14805    2.15544    1.33736
H     -3.43392    1.09160    1.44447
Br     1.83357   -1.42078    1.98714
