22

O      0.66206   -0.94980   -2.48048
N      2.79878   -0.75498   -0.41972
H      3.21989   -0.62371   -1.34293
H      3.07628   -1.69324   -0.11662
Fe     0.64666   -0.44581   -0.53464
H      3.26331   -0.09277    0.20717
P      0.74266    1.82162   -0.92821
H      0.11664    2.24707   -2.12979
H      0.11641    2.67435    0.01891
P     -0.57315   -2.39521   -0.29094
H     -1.46888   -2.67279   -1.35291
H      0.29395   -3.51819   -0.34688
H     -1.34895   -2.70357    0.85716
P     -1.98622    0.47071   -0.94972
H     -2.37131    0.04025   -2.24560
H     -2.94231   -0.23275   -0.16537
H     -2.60801    1.75281   -0.92983
P      0.54893   -0.05655    1.72078
H      0.89125   -1.14107    2.57748
H     -0.72694    0.27004    2.25767
Br     1.81967    1.52439    2.48771
Br     2.72854    2.68239   -1.08156
