18

O      0.77460   -0.09865   -2.43645
O     -0.35857   -2.07287    0.15693
O      0.37351    2.07856    0.20242
N      2.21031   -0.38874    0.50154
O     -1.87800    0.34074   -0.54394
O     -0.33312    0.05252    1.71435
H     -0.58203   -2.49253    1.00780
H      0.29426    2.53426    1.06031
H      2.80549    0.34713    0.10724
H      2.52827   -1.25828    0.06107
H     -2.16696    1.17628   -0.94383
H     -2.43112   -0.34195   -0.95570
H      0.09815   -0.02801    2.57767
H     -1.27174    0.21562    1.89506
Fe     0.18413   -0.02456   -0.05514
H      2.45515   -0.45954    1.49308
Br     1.18303    3.27851   -0.95535
Br     0.04429   -3.45178   -1.01475
