12

H 0.000000 0.000000 0.000000
H 0.000000 0.000000 1.957576
H 0.000000 0.000000 3.915152
H 0.000000 0.000000 5.872727
H 0.000000 0.000000 7.830303
H 0.000000 0.000000 9.787879
H 0.000000 0.000000 11.745455
H 0.000000 0.000000 13.703030
H 0.000000 0.000000 15.660606
H 0.000000 0.000000 17.618182
H 0.000000 0.000000 19.575758
H 0.000000 0.000000 21.533333
