53

O      5.86479   23.18107    7.36999
Fe     6.40882   22.40147    5.35021
P      6.07136   20.24929    5.87818
C      5.83586   18.96582    4.60307
C      4.76871   19.14168    3.52612
C      4.26174   21.61317    3.48487
C      4.49546   23.01439    2.92251
P      5.12752   23.95803    4.34489
C      5.95684   20.60709    1.77839
C      7.34002   20.69001    2.39551
P      7.71351   22.03945    3.55912
C      9.32045   21.55859    4.25782
C      8.14630   23.44507    2.49580
H      4.86452   18.27757    2.84909
H      5.02323   21.58207    4.38810
H      3.78726   19.00779    4.00692
H      5.79298   21.47314    1.11792
H      5.98215   19.74741    1.08832
H      8.08949   20.80163    1.59259
H      7.60669   19.76236    2.91588
H      8.97871   23.15391    1.83536
H      7.29520   23.75015    1.87256
H      8.46536   24.29413    3.11777
H     10.05122   21.38166    3.45179
H      9.69843   22.36291    4.90837
H      9.20339   20.64266    4.85375
H      5.28658   23.00312    2.16248
H      3.59546   23.44910    2.45762
C      3.71904   24.26044    5.43048
H      4.08282   24.81956    6.30522
H      2.94655   24.84430    4.90459
H      3.30685   23.30515    5.78094
C      5.66600   25.59537    3.81772
H      6.07027   26.12835    4.69293
H      6.43610   25.54176    3.03944
H      4.79446   26.15200    3.43550
H      5.57565   18.06713    5.19143
H      6.82776   18.74715    4.18412
C      4.40493   20.30846    6.77720
H      3.71165   20.77868    6.05826
H      4.12443   19.24339    6.86849
C      7.19019   19.49750    7.08160
H      6.80299   18.50933    7.37981
H      8.20044   19.37972    6.66443
H      7.24424   20.15469    7.95969
C      4.73143   20.40653    2.66206
H      3.90612   20.24264    1.94462
N      4.38983   20.95277    8.01748
H      4.63088   21.94407    7.97415
H      4.86673   20.47165    8.77413
N      2.96555   21.45658    3.99968
H      2.32843   22.23500    3.88177
H      2.51275   20.56397    3.83851
