29

O     -2.55895    2.13772    2.46738
Fe    -2.32311    2.20328   -0.48208
N     -3.57661    3.86859   -0.79327
O     -1.93534    1.69862   -2.01175
N     -0.23367    2.49601   -0.40461
O     -3.58915    0.55477   -0.53431
C     -4.82483    3.64642   -0.04534
H     -5.49374    4.51544   -0.16689
H     -5.32991    2.75031   -0.43119
H     -4.59249    3.50785    1.01740
C     -2.82964    5.01133   -0.24635
H     -1.89990    5.15876   -0.81512
H     -3.43283    5.93281   -0.32312
H     -2.59566    4.82224    0.80972
C     -3.86288    4.06231   -2.21976
H     -4.40470    3.18885   -2.61129
H     -4.50387    4.95012   -2.36081
H     -2.92848    4.22265   -2.77561
H     -1.31125    1.00478   -2.27108
H     -2.51814    1.81556   -2.77573
H      0.17220    2.28882    0.51544
H     -3.82677    0.34954    0.38402
C      0.59915    2.98682   -1.24036
H      1.65932    3.15648   -0.98432
H      0.25938    3.25194   -2.25278
C     -3.76732   -0.60613   -1.35851
H     -3.02813   -1.38442   -1.10397
H     -4.78880   -0.99714   -1.22381
H     -3.63860   -0.29269   -2.40148
