18

O      0.67740   -0.08645   -2.04447
O     -0.26137   -2.08507   -0.23505
O      0.47071    2.06636   -0.18956
N      2.30751   -0.40094    0.10956
O     -1.87800    0.34074   -0.54394
O     -0.33312    0.05252    1.71435
H     -0.48483   -2.50473    0.61582
H      0.39146    2.52206    0.66833
H      2.90269    0.33493   -0.28474
H      2.62547   -1.27048   -0.33091
H     -2.16696    1.17628   -0.94383
H     -2.43112   -0.34195   -0.95570
H      0.09815   -0.02801    2.57767
H     -1.27174    0.21562    1.89506
Fe     0.28133   -0.03676   -0.44712
H      2.55235   -0.47174    1.10110
Br     1.28023    3.26631   -1.34733
Br     0.14149   -3.46398   -1.40673
