23

O      0.25777   -0.48795   -1.93725
O     -0.54720   -2.22172   -0.02851
O      0.18933    2.08207   -0.28257
P      2.30972   -0.55754    0.05634
N     -2.23736    0.26206   -0.72278
O     -0.47882    0.27163    1.69224
H     -0.99039   -2.63161    0.72853
H     -0.42456   -2.91102   -0.69835
H      3.16724    0.33118   -0.64201
H      2.77127   -1.79303   -0.46383
H     -2.42215    0.99648   -1.41135
H     -2.75081   -0.56064   -1.05257
H     -0.05123   -0.17854    2.43422
H     -0.23636    1.24145    1.77340
Fe    -0.13900   -0.18465   -0.47471
H      2.94239   -0.56589    1.32942
H     -2.68804    0.55006    0.15053
N      0.24389    2.71179    0.98275
H      1.19077    3.09130    1.11489
H     -0.41483    3.50186    0.97497
N      0.49817    2.81617   -1.41346
H     -0.13512    3.62353   -1.46170
H      1.46051    3.16516   -1.32741
