22

O      0.60723   -0.09996   -2.53058
O     -0.13176   -2.17943   -0.07121
O      0.10773    2.16127   -0.26153
P      2.21135   -0.27149    0.56168
O     -2.20044   -0.02888   -0.22118
O     -0.64106    0.01076    1.68341
H     -0.22828   -2.85443   -0.76923
H      0.53141    2.57598    0.50515
H      0.36283    2.70154   -1.02613
H      3.12146    0.77458    0.26200
H      2.85373   -1.36601   -0.06817
H     -2.77625    0.35653   -0.89631
H     -2.48148    0.30179    0.73387
H     -0.79213   -1.01458    1.66698
Fe    -0.16021    0.06755   -0.18381
H      2.51980   -0.51465    1.92558
N     -0.93253   -2.47185    1.03290
H     -1.88513   -2.68965    0.71559
H     -0.54582   -3.29455    1.51254
N     -1.94509    0.54948    1.82075
H     -2.37163    0.13016    2.65796
H     -1.79979    1.53586    2.06131
