22

O      0.40049   -0.05484   -1.89839
O     -0.13176   -2.17943   -0.07121
O      0.10773    2.16127   -0.26153
P      2.41809   -0.31661   -0.07051
O     -1.99370   -0.07400   -0.85337
O     -0.64106    0.01076    1.68341
H     -0.22828   -2.85443   -0.76923
H      0.53141    2.57598    0.50515
H      0.36283    2.70154   -1.02613
H      3.32820    0.72946   -0.37019
H      3.06047   -1.41113   -0.70036
H     -2.56951    0.31141   -1.52850
H     -2.27474    0.25667    0.10168
H     -0.79213   -1.01458    1.66698
Fe     0.04653    0.02243   -0.81600
H      2.72654   -0.55977    1.29339
N     -0.93253   -2.47185    1.03290
H     -1.88513   -2.68965    0.71559
H     -0.54582   -3.29455    1.51254
N     -1.94509    0.54948    1.82075
H     -2.37163    0.13016    2.65796
H     -1.79979    1.53586    2.06131
