29

O     -2.50422    2.15294    1.78286
Fe    -2.37784    2.18806    0.20244
N     -3.63134    3.85337   -0.10875
O     -1.93534    1.69862   -2.01175
N     -0.28840    2.48079    0.27991
O     -3.64388    0.53955    0.15021
C     -4.87956    3.63120    0.63918
H     -5.54847    4.50022    0.51763
H     -5.38464    2.73509    0.25333
H     -4.64722    3.49263    1.70192
C     -2.88437    4.99611    0.43817
H     -1.95463    5.14354   -0.13060
H     -3.48756    5.91759    0.36140
H     -2.65039    4.80702    1.49424
C     -3.91761    4.04709   -1.53524
H     -4.45943    3.17363   -1.92677
H     -4.55860    4.93490   -1.67629
H     -2.98321    4.20743   -2.09109
H     -1.31125    1.00478   -2.27108
H     -2.51814    1.81556   -2.77573
H      0.11747    2.27360    1.19996
H     -3.88150    0.33432    1.06854
C      0.54442    2.97160   -0.55584
H      1.60459    3.14126   -0.29980
H      0.20465    3.23672   -1.56826
C     -3.82205   -0.62135   -0.67399
H     -3.08286   -1.39964   -0.41945
H     -4.84353   -1.01236   -0.53929
H     -3.69333   -0.30791   -1.71696
