36

O      7.27827   22.38072    6.32583
Fe     6.53064   21.99259    5.52599
N      5.75731   20.28914    6.30106
C      5.97021   19.28898    5.22510
C      4.98526   19.48970    4.07842
C      4.11467   22.00706    3.48425
C      4.84338   23.33336    3.70063
N      5.31589   23.55726    5.07956
C      6.10971   20.91731    2.20167
C      7.50838   20.91624    2.75677
O      7.66658   21.85106    3.85977
H      5.16340   18.62365    3.42144
H      3.58981   22.22549    2.53876
H      3.97980   19.30864    4.49156
H      5.94828   21.83057    1.60729
H      6.13006   20.10229    1.45777
H      8.21957   21.22299    1.97258
H      7.81078   19.91710    3.11274
H      5.71201   23.43347    3.03411
H      4.14574   24.14748    3.43791
H      7.01174   19.43535    4.88514
C      4.89473   20.69427    3.11504
H      4.16087   20.26583    2.41343
H      6.27528   20.02457    7.14583
H      4.76839   20.30667    6.57155
H      8.60431   22.07509    3.97454
H      5.81437   24.44971    5.15984
H      4.52160   23.62751    5.72472
C      3.02420   21.79269    4.51857
H      2.37135   22.67715    4.59323
H      2.37948   20.94302    4.25035
H      3.42108   21.58983    5.52719
C      5.86611   17.88249    5.79054
H      6.10425   17.14100    5.01365
H      6.57091   17.73279    6.62367
H      4.84344   17.68400    6.14996
