23

O      0.23183   -0.07566   -1.96244
O     -0.52170   -2.07818   -0.23040
O      0.08708    2.13902   -0.31843
P      2.24124   -0.32103   -0.10060
N     -2.32838    0.32895   -0.89154
O     -0.64925    0.13074    1.73012
H     -0.44904   -2.37325    0.69366
H      0.25540    2.43204    0.59357
H      3.09736    0.62821   -0.70971
H      2.75555   -1.55033   -0.58112
H     -2.68110    1.21780   -0.52334
H     -2.55953    0.34392   -1.88998
H      0.00201    0.06919    2.44469
H     -1.49736    0.26955    2.17863
Fe    -0.19475    0.01648   -0.67052
H      2.75657   -0.32278    1.22392
H     -2.92130   -0.40521   -0.49209
N      1.16517    2.69351   -1.07327
H      0.81768    3.60816   -1.39149
H      1.18033    2.09519   -1.90674
N      0.34449   -2.95293   -0.95283
H      0.52376   -2.42326   -1.81327
H     -0.25295   -3.74360   -1.22961
