22

O      0.66384   -1.00805   -2.70537
N      2.79878   -0.75498   -0.41972
H      3.21989   -0.62371   -1.34293
H      3.07628   -1.69324   -0.11662
Fe     0.64488   -0.38756   -0.30975
H      3.26331   -0.09277    0.20717
P      0.74088    1.87987   -0.70332
H      0.11486    2.30532   -1.90490
H      0.11463    2.73260    0.24380
P     -0.57493   -2.33696   -0.06605
H     -1.47066   -2.61454   -1.12802
H      0.29217   -3.45994   -0.12199
H     -1.35073   -2.64532    1.08205
P     -1.98622    0.47071   -0.94972
H     -2.37131    0.04025   -2.24560
H     -2.94231   -0.23275   -0.16537
H     -2.60801    1.75281   -0.92983
P      0.54715    0.00170    1.94567
H      0.88947   -1.08282    2.80237
H     -0.72872    0.32829    2.48256
Br     1.81789    1.58264    2.71260
Br     2.72676    2.74064   -0.85667
