14

H 0.000000 0.000000 0.000000
H 0.000000 0.000000 2.951515
H 0.000000 0.000000 5.903030
H 0.000000 0.000000 8.854545
H 0.000000 0.000000 11.806061
H 0.000000 0.000000 14.757576
H 0.000000 0.000000 17.709091
H 0.000000 0.000000 20.660606
H 0.000000 0.000000 23.612121
H 0.000000 0.000000 26.563636
H 0.000000 0.000000 29.515152
H 0.000000 0.000000 32.466667
H 0.000000 0.000000 35.418182
H 0.000000 0.000000 38.369697
