18

O      0.63124   -0.08066   -1.85827
O     -0.21521   -2.09086   -0.42125
O      0.51687    2.06057   -0.37576
N      2.35367   -0.40673   -0.07664
O     -1.87800    0.34074   -0.54394
O     -0.33312    0.05252    1.71435
H     -0.43867   -2.51052    0.42962
H      0.43762    2.51627    0.48213
H      2.94885    0.32914   -0.47094
H      2.67163   -1.27627   -0.51711
H     -2.16696    1.17628   -0.94383
H     -2.43112   -0.34195   -0.95570
H      0.09815   -0.02801    2.57767
H     -1.27174    0.21562    1.89506
Fe     0.32749   -0.04255   -0.63332
H      2.59851   -0.47753    0.91490
Br     1.32639    3.26052   -1.53353
Br     0.18765   -3.46977   -1.59293
