17

O      0.00000    0.00000    1.69394
Fe     0.00000    0.00000   -0.09394
O     -0.02532   -2.04942   -0.13571
O      0.01885    2.04941   -0.13942
O     -2.09136   -0.00340   -0.28424
O      2.09172    0.00000   -0.28018
O      0.00000    0.00000   -2.14394
H      0.26040   -2.63210   -0.86132
H      0.04961   -2.57039    0.68444
H     -0.25655    2.63228   -0.86880
H     -0.05040    2.57471    0.67838
H     -2.58023    0.46315    0.42003
H     -2.52460   -0.87680   -0.32201
H      2.52747    0.87055   -0.34474
H      2.57839   -0.44571    0.43898
H     -0.77522    0.08407   -2.72456
H      0.77001   -0.10212   -2.72852
