19

O      0.65360   -0.17698   -1.84315
O     -0.02086   -2.16168   -0.19852
O      0.54205    2.02627   -0.29589
P      2.74946   -0.40889   -0.01835
P     -2.22553    0.28254   -0.92454
O     -0.19929    0.04417    1.85116
H     -0.59524   -2.57285    0.46485
H     -0.12357   -2.68452   -1.00916
H      0.68788    2.47549    0.55064
H      1.18009    2.41405   -0.91729
H      3.29993   -1.47593   -0.77778
H     -2.38730    1.24743   -1.95659
H      0.37968   -0.22737    2.57891
H     -1.02912    0.31306    2.27257
Fe     0.27362   -0.07497   -0.45332
H      3.34695   -0.67908    1.24697
H     -3.31886    0.66526   -0.09332
Br    -2.95938   -1.53617   -1.85346
Br     3.86077    1.31845   -0.70249
