29

O     -2.55976    2.13750    2.47744
Fe    -2.32230    2.20350   -0.49214
N     -3.57580    3.86881   -0.80333
O     -1.93534    1.69862   -2.01175
N     -0.23286    2.49623   -0.41467
O     -3.58834    0.55499   -0.54437
C     -4.82402    3.64664   -0.05540
H     -5.49293    4.51566   -0.17695
H     -5.32910    2.75053   -0.44125
H     -4.59168    3.50807    1.00734
C     -2.82883    5.01155   -0.25641
H     -1.89909    5.15898   -0.82518
H     -3.43202    5.93303   -0.33318
H     -2.59485    4.82246    0.79966
C     -3.86207    4.06253   -2.22982
H     -4.40389    3.18907   -2.62135
H     -4.50306    4.95034   -2.37087
H     -2.92767    4.22287   -2.78567
H     -1.31125    1.00478   -2.27108
H     -2.51814    1.81556   -2.77573
H      0.17301    2.28904    0.50538
H     -3.82596    0.34976    0.37396
C      0.59996    2.98704   -1.25042
H      1.66013    3.15670   -0.99438
H      0.26019    3.25216   -2.26284
C     -3.76651   -0.60591   -1.36857
H     -3.02732   -1.38420   -1.11403
H     -4.78799   -0.99692   -1.23387
H     -3.63779   -0.29247   -2.41154
