22

O      0.65889   -0.84596   -2.07958
N      2.79878   -0.75498   -0.41972
H      3.21989   -0.62371   -1.34293
H      3.07628   -1.69324   -0.11662
Fe     0.64983   -0.54965   -0.93554
H      3.26331   -0.09277    0.20717
P      0.74583    1.71778   -1.32911
H      0.11981    2.14323   -2.53069
H      0.11958    2.57051   -0.38199
P     -0.56998   -2.49905   -0.69184
H     -1.46571   -2.77663   -1.75381
H      0.29712   -3.62203   -0.74778
H     -1.34578   -2.80741    0.45626
P     -1.98622    0.47071   -0.94972
H     -2.37131    0.04025   -2.24560
H     -2.94231   -0.23275   -0.16537
H     -2.60801    1.75281   -0.92983
P      0.55210   -0.16039    1.31988
H      0.89442   -1.24491    2.17658
H     -0.72377    0.16620    1.85677
Br     1.82284    1.42055    2.08681
Br     2.73171    2.57855   -1.48246
