23

O     12.01818    7.06490   12.99059
Fe    13.06161    7.37382   11.86492
N     14.60433    7.70056   10.17615
N     11.98216    8.34914   10.42545
O     14.49556    8.78875   12.64296
N     13.77931    5.51393   11.49257
C     14.08961    8.81383    9.37392
H     14.53737    9.76637    9.71537
H     14.39625    8.74006    8.31512
C     12.61497    8.95145    9.48908
C     15.84762    7.98077   10.86209
H     16.27361    7.02674   11.23018
C     15.59617    8.79833   12.11006
C     14.65105    6.43425    9.44793
H     13.86339    6.41783    8.67527
H     15.61043    6.29806    8.91799
C     14.37024    5.28396   10.37068
H     12.10086    9.60772    8.76534
H     16.44150    9.36981   12.55104
H     13.56438    4.69892   12.07571
H     10.97034    8.51126   10.46676
Br    17.22077    8.77580    9.76808
Br    14.84459    3.61693    9.78387
