33

O      6.84796   22.66824    6.90570
Fe     6.27277   21.76001    5.06539
N      6.02938   19.69000    5.60730
C      5.72145   18.80741    4.47401
C      4.55890   19.24266    3.59725
C      3.97789   21.78441    3.52658
C      4.47050   23.16003    3.09535
N      5.77372   23.42797    3.71652
C      5.90306   20.72356    1.96321
C      7.31009   20.69099    2.50245
N      7.61180   21.17344    3.68310
H      4.44569   18.43113    2.86001
H      2.89983   21.73013    3.29601
H      3.61338   19.20776    4.16687
H      5.83560   21.65425    1.37412
H      5.84810   19.92840    1.20317
H      4.50837   23.24141    1.99930
H      3.74152   23.91470    3.43058
H      5.50661   17.78774    4.83897
H      6.63505   18.72501    3.86843
C      4.62536   20.56136    2.80647
H      3.89180   20.40613    1.99886
H      6.90326   19.38784    6.04761
H      5.32814   19.59093    6.34635
H      8.60787   21.14523    3.91095
H      6.52287   23.50193    3.02859
H      5.77462   24.31236    4.22795
N      8.22525   20.19997    1.66519
H      9.21655   20.21033    1.88713
H      7.97029   19.85130    0.74759
N      4.16214   21.73527    4.98124
H      3.72839   22.54239    5.43819
H      3.70703   20.91370    5.37831
