18

H 0.000000 0.000000 0.000000
H 0.000000 0.000000 1.545455
H 0.000000 0.000000 3.090909
H 0.000000 0.000000 4.636364
H 0.000000 0.000000 6.181818
H 0.000000 0.000000 7.727273
H 0.000000 0.000000 9.272727
H 0.000000 0.000000 10.818182
H 0.000000 0.000000 12.363636
H 0.000000 0.000000 13.909091
H 0.000000 0.000000 15.454545
H 0.000000 0.000000 17.000000
H 0.000000 0.000000 18.545455
H 0.000000 0.000000 20.090909
H 0.000000 0.000000 21.636364
H 0.000000 0.000000 23.181818
H 0.000000 0.000000 24.727273
H 0.000000 0.000000 26.272727
