18

O      0.68955   -0.08798   -2.09346
O     -0.27352   -2.08354   -0.18606
O      0.45856    2.06789   -0.14057
N      2.29536   -0.39941    0.15855
O     -1.87800    0.34074   -0.54394
O     -0.33312    0.05252    1.71435
H     -0.49698   -2.50320    0.66481
H      0.37931    2.52359    0.71732
H      2.89054    0.33646   -0.23575
H      2.61332   -1.26895   -0.28192
H     -2.16696    1.17628   -0.94383
H     -2.43112   -0.34195   -0.95570
H      0.09815   -0.02801    2.57767
H     -1.27174    0.21562    1.89506
Fe     0.26918   -0.03523   -0.39813
H      2.54020   -0.47021    1.15009
Br     1.26808    3.26784   -1.29834
Br     0.12934   -3.46245   -1.35774
