54

O      7.39864   22.89743    6.81603
Fe     5.98661   22.11877    4.80745
P      5.79731   20.09006    5.87859
C      5.06655   18.79353    4.80509
C      4.04687   19.46957    3.91003
P      4.86502   20.96190    3.25782
C      3.61480   22.11079    2.62231
C      4.15352   23.51044    2.83362
N      4.80710   23.76014    4.14203
C      5.97053   20.42516    1.89072
C      7.40468   20.38807    2.38798
P      7.73392   21.95881    3.27345
C      9.34340   21.82106    4.07653
C      8.00633   23.15948    1.94188
H      3.68541   18.82461    3.09227
H      3.41313   21.93120    1.55384
H      2.68186   21.92050    3.16689
H      3.16955   19.80909    4.48484
H      5.85444   21.15662    1.07438
H      5.63154   19.45127    1.50144
H      8.12521   20.23837    1.56662
H      7.55456   19.57100    3.11129
H      8.81177   22.78468    1.28907
H      7.09959   23.31035    1.34059
H      8.32125   24.12146    2.37246
H     10.12221   21.58210    3.33479
H      9.56668   22.78608    4.55648
H      9.31688   21.05294    4.85896
H      4.92353   23.70339    2.07293
H      3.35946   24.26091    2.67495
C      3.85078   23.98788    5.24439
H      4.46076   24.29010    6.10385
H      3.20675   24.84885    4.98831
C      5.63957   24.98251    3.94055
H      6.34852   24.72756    3.14346
H      4.96986   25.76067    3.52860
H      4.62980   17.98807    5.41803
H      5.88319   18.34840    4.21409
C      4.78770   20.10718    7.37716
H      3.73563   20.31015    7.13575
H      4.86594   19.12356    7.86775
H      5.16266   20.88729    8.05273
C      7.41404   19.48818    6.39845
H      7.29244   18.55520    6.97222
H      8.04202   19.29128    5.51947
H      7.88842   20.26004    7.02150
C      6.38048   25.53004    5.12966
H      5.71180   25.92348    5.90806
H      7.04854   24.78081    5.57327
H      6.98956   26.37861    4.78153
C      3.02785   22.78053    5.61994
H      2.64028   22.89511    6.64259
H      2.16631   22.61513    4.96070
H      3.66249   21.87746    5.60158
