29

O     -2.51709    2.14936    1.94392
Fe    -2.36497    2.19164    0.04138
N     -3.61847    3.85695   -0.26981
O     -1.93534    1.69862   -2.01175
N     -0.27553    2.48437    0.11885
O     -3.63101    0.54313   -0.01085
C     -4.86669    3.63478    0.47812
H     -5.53560    4.50380    0.35657
H     -5.37177    2.73867    0.09227
H     -4.63435    3.49621    1.54086
C     -2.87150    4.99969    0.27711
H     -1.94176    5.14712   -0.29166
H     -3.47469    5.92117    0.20034
H     -2.63752    4.81060    1.33318
C     -3.90474    4.05067   -1.69630
H     -4.44656    3.17721   -2.08783
H     -4.54573    4.93848   -1.83735
H     -2.97034    4.21101   -2.25215
H     -1.31125    1.00478   -2.27108
H     -2.51814    1.81556   -2.77573
H      0.13034    2.27718    1.03890
H     -3.86863    0.33790    0.90748
C      0.55729    2.97518   -0.71690
H      1.61746    3.14484   -0.46086
H      0.21752    3.24030   -1.72932
C     -3.80918   -0.61777   -0.83505
H     -3.06999   -1.39606   -0.58051
H     -4.83066   -1.00878   -0.70035
H     -3.68046   -0.30433   -1.87802
