22

O      0.50613   -0.26538   -2.43029
O     -0.66709   -2.13712   -0.38183
O     -0.29572    1.88081    0.14726
P      2.11024   -0.55432    0.21821
O     -2.35339    0.11938   -0.75358
O     -0.76755   -0.13725    1.74867
H     -0.72924   -2.43266    0.54358
H     -0.77360    1.94393    1.06054
H      0.10520    2.71451   -0.13245
H      3.03315    0.32708   -0.39744
H      2.54684   -1.81878   -0.24643
H     -2.71514    0.87660   -1.24004
H     -2.86977   -0.64808   -1.04523
H      0.06134   -0.08743    2.25404
Fe    -0.25330   -0.05395   -0.42839
H      2.60510   -0.57187    1.55056
N      0.19404   -3.08776   -1.01502
H     -0.43151   -3.85283   -1.30283
H      0.44633   -2.60182   -1.88377
N     -1.42320    1.10119    2.01296
H     -2.39675    0.90660    1.75224
H     -1.43649    1.24044    3.03273
