33

O      6.95428   22.83611    7.24586
Fe     6.16645   21.59214    4.72523
N      5.92306   19.52213    5.26714
C      5.61513   18.63954    4.13385
C      4.45258   19.07479    3.25709
C      3.87157   21.61654    3.18642
C      4.36418   22.99216    2.75519
N      5.66740   23.26010    3.37636
C      5.79674   20.55569    1.62305
C      7.20377   20.52312    2.16229
N      7.50548   21.00557    3.34294
H      4.33937   18.26326    2.51985
H      2.79351   21.56226    2.95585
H      3.50706   19.03989    3.82671
H      5.72928   21.48638    1.03396
H      5.74178   19.76053    0.86301
H      4.40205   23.07354    1.65914
H      3.63520   23.74683    3.09042
H      5.40029   17.61987    4.49881
H      6.52873   18.55714    3.52827
C      4.51904   20.39349    2.46631
H      3.78548   20.23826    1.65870
H      6.79694   19.21997    5.70745
H      5.22182   19.42306    6.00619
H      8.50155   20.97736    3.57079
H      6.41655   23.33406    2.68843
H      5.66830   24.14449    3.88779
N      8.11893   20.03210    1.32503
H      9.11023   20.04246    1.54697
H      7.86397   19.68343    0.40743
N      4.05582   21.56740    4.64108
H      3.62207   22.37452    5.09803
H      3.60071   20.74583    5.03815
