53

O      5.92633   23.09288    7.14151
Fe     6.34728   22.48966    5.57869
P      6.00982   20.33748    6.10666
C      5.77432   19.05401    4.83155
C      4.70717   19.22987    3.75460
C      4.20020   21.70136    3.71335
C      4.43392   23.10258    3.15099
P      5.06598   24.04622    4.57337
C      5.89530   20.69528    2.00687
C      7.27848   20.77820    2.62399
P      7.65197   22.12764    3.78760
C      9.25891   21.64678    4.48630
C      8.08476   23.53326    2.72428
H      4.80298   18.36576    3.07757
H      4.96169   21.67026    4.61658
H      3.72572   19.09598    4.23540
H      5.73144   21.56133    1.34640
H      5.92061   19.83560    1.31680
H      8.02795   20.88982    1.82107
H      7.54515   19.85055    3.14436
H      8.91717   23.24210    2.06384
H      7.23366   23.83834    2.10104
H      8.40382   24.38232    3.34625
H      9.98968   21.46985    3.68027
H      9.63689   22.45110    5.13685
H      9.14185   20.73085    5.08223
H      5.22504   23.09131    2.39096
H      3.53392   23.53729    2.68610
C      3.65750   24.34863    5.65896
H      4.02128   24.90775    6.53370
H      2.88501   24.93249    5.13307
H      3.24531   23.39334    6.00942
C      5.60446   25.68356    4.04620
H      6.00873   26.21654    4.92141
H      6.37456   25.62995    3.26792
H      4.73292   26.24019    3.66398
H      5.51411   18.15532    5.41991
H      6.76622   18.83534    4.41260
C      4.34339   20.39665    7.00568
H      3.65011   20.86687    6.28674
H      4.06289   19.33158    7.09697
C      7.12865   19.58569    7.31008
H      6.74145   18.59752    7.60829
H      8.13890   19.46791    6.89291
H      7.18270   20.24288    8.18817
C      4.66989   20.49472    2.89054
H      3.84458   20.33083    2.17310
N      4.32829   21.04096    8.24596
H      4.56934   22.03226    8.20263
H      4.80519   20.55984    9.00261
N      2.90401   21.54477    4.22816
H      2.26689   22.32319    4.11025
H      2.45121   20.65216    4.06699
