23

O      0.27923   -0.08590   -2.10598
O     -0.52170   -2.07818   -0.23040
O      0.08708    2.13902   -0.31843
P      2.19384   -0.31079    0.04294
N     -2.37578    0.33919   -0.74800
O     -0.64925    0.13074    1.73012
H     -0.44904   -2.37325    0.69366
H      0.25540    2.43204    0.59357
H      3.04996    0.63845   -0.56617
H      2.70815   -1.54009   -0.43758
H     -2.72850    1.22804   -0.37980
H     -2.60693    0.35416   -1.74644
H      0.00201    0.06919    2.44469
H     -1.49736    0.26955    2.17863
Fe    -0.24215    0.02672   -0.52698
H      2.70917   -0.31254    1.36746
H     -2.96870   -0.39497   -0.34855
N      1.16517    2.69351   -1.07327
H      0.81768    3.60816   -1.39149
H      1.18033    2.09519   -1.90674
N      0.34449   -2.95293   -0.95283
H      0.52376   -2.42326   -1.81327
H     -0.25295   -3.74360   -1.22961
