19

O      0.71206   -0.19268   -2.05697
O     -0.07932   -2.14598    0.01530
O      0.48359    2.04197   -0.08207
P      2.69100   -0.39319    0.19547
P     -2.22553    0.28254   -0.92454
O     -0.19929    0.04417    1.85116
H     -0.65370   -2.55715    0.67867
H     -0.18203   -2.66882   -0.79534
H      0.62942    2.49119    0.76446
H      1.12163    2.42975   -0.70347
H      3.24147   -1.46023   -0.56396
H     -2.38730    1.24743   -1.95659
H      0.37968   -0.22737    2.57891
H     -1.02912    0.31306    2.27257
Fe     0.21516   -0.05927   -0.23950
H      3.28849   -0.66338    1.46079
H     -3.31886    0.66526   -0.09332
Br    -2.95938   -1.53617   -1.85346
Br     3.80231    1.33415   -0.48867
