23

O     11.77584    6.99315   13.25203
Fe    13.30395    7.44557   11.60348
N     14.84667    7.77231    9.91471
N     12.22450    8.42089   10.16401
O     14.73790    8.86050   12.38152
N     14.02165    5.58568   11.23113
C     14.33195    8.88558    9.11248
H     14.77971    9.83812    9.45393
H     14.63859    8.81181    8.05368
C     12.85731    9.02320    9.22764
C     16.08996    8.05252   10.60065
H     16.51595    7.09849   10.96874
C     15.83851    8.87008   11.84862
C     14.89339    6.50600    9.18649
H     14.10573    6.48958    8.41383
H     15.85277    6.36981    8.65655
C     14.61258    5.35571   10.10924
H     12.34320    9.67947    8.50390
H     16.68384    9.44156   12.28960
H     13.80672    4.77067   11.81427
H     11.21268    8.58301   10.20532
Br    17.46311    8.84755    9.50664
Br    15.08693    3.68868    9.52243
