17

O      0.00000    0.00000    1.53232
Fe     0.00000    0.00000    0.06768
O     -0.02532   -2.04942    0.02591
O      0.01885    2.04941    0.02219
O     -2.09136   -0.00340   -0.12262
O      2.09172    0.00000   -0.11857
O      0.00000    0.00000   -1.98232
H      0.26040   -2.63210   -0.69971
H      0.04961   -2.57039    0.84605
H     -0.25655    2.63228   -0.70719
H     -0.05040    2.57471    0.84000
H     -2.58023    0.46315    0.58164
H     -2.52460   -0.87680   -0.16039
H      2.52747    0.87055   -0.18312
H      2.57839   -0.44571    0.60060
H     -0.77522    0.08407   -2.56295
H      0.77001   -0.10212   -2.56691
