53

O      5.87463   23.16696    7.33343
Fe     6.39898   22.41558    5.38677
P      6.06152   20.26340    5.91474
C      5.82602   18.97993    4.63963
C      4.75887   19.15579    3.56268
C      4.25190   21.62728    3.52143
C      4.48562   23.02850    2.95907
P      5.11768   23.97214    4.38145
C      5.94700   20.62120    1.81495
C      7.33018   20.70412    2.43207
P      7.70367   22.05356    3.59568
C      9.31061   21.57270    4.29438
C      8.13646   23.45918    2.53236
H      4.85468   18.29168    2.88565
H      5.01339   21.59618    4.42466
H      3.77742   19.02190    4.04348
H      5.78314   21.48725    1.15448
H      5.97231   19.76152    1.12488
H      8.07965   20.81574    1.62915
H      7.59685   19.77647    2.95244
H      8.96887   23.16802    1.87192
H      7.28536   23.76426    1.90912
H      8.45552   24.30824    3.15433
H     10.04138   21.39577    3.48835
H      9.68859   22.37702    4.94493
H      9.19355   20.65677    4.89031
H      5.27674   23.01723    2.19904
H      3.58562   23.46321    2.49418
C      3.70920   24.27455    5.46704
H      4.07298   24.83367    6.34178
H      2.93671   24.85841    4.94115
H      3.29701   23.31926    5.81750
C      5.65616   25.60948    3.85428
H      6.06043   26.14246    4.72949
H      6.42626   25.55587    3.07600
H      4.78462   26.16611    3.47206
H      5.56581   18.08124    5.22799
H      6.81792   18.76126    4.22068
C      4.39509   20.32257    6.81376
H      3.70181   20.79279    6.09482
H      4.11459   19.25750    6.90505
C      7.18035   19.51161    7.11816
H      6.79315   18.52344    7.41637
H      8.19060   19.39383    6.70099
H      7.23440   20.16880    7.99625
C      4.72159   20.42064    2.69862
H      3.89628   20.25675    1.98118
N      4.37999   20.96688    8.05404
H      4.62104   21.95818    8.01071
H      4.85689   20.48576    8.81069
N      2.95571   21.47069    4.03624
H      2.31859   22.24911    3.91833
H      2.50291   20.57808    3.87507
