24

O     -0.14850    0.60925   -2.42730
N      2.16424    0.38262   -1.33824
H      2.43467    0.38809   -2.32625
H      2.55915   -0.46614   -0.92231
Fe     0.03956    0.38385   -1.24086
H      2.63952    1.16673   -0.88503
P      0.27629    3.03788   -0.55478
H      1.11728    3.57301   -1.56651
H     -0.87528    3.83357   -0.80306
H      0.79082    3.72520    0.58078
P     -0.20068   -2.18094   -1.32815
H     -0.75509   -2.53322   -2.58381
H      0.94590   -3.01171   -1.28481
H     -1.05685   -2.89094   -0.44426
P     -2.22779    0.80283   -0.84043
H     -2.83903    1.63966   -1.81993
H     -3.00982   -0.37534   -0.94283
P      0.06122   -0.13007    1.10021
H      0.09233    0.90484    2.07223
H     -1.02301   -0.90241    1.58896
N     -2.53730    1.28979    0.74203
H     -2.20400    2.22251    0.98437
H     -3.48987    1.15867    1.09148
Br     1.77762   -1.35371    1.63415
