54

O      7.37289   23.28434    5.96125
Fe     6.33264   22.30279    4.92065
N      5.95544   20.58414    6.16769
C      5.88862   19.40643    5.28466
C      4.86315   19.57234    4.18078
P      5.18072   21.19280    3.40390
C      3.68044   22.16592    3.15067
C      4.08009   23.64177    3.26234
N      4.87824   23.81783    4.54759
C      6.09721   20.82332    1.86264
C      7.51372   20.46064    2.27978
P      8.06943   21.60341    3.60669
C      9.52896   20.86421    4.36510
C      8.68251   23.10616    2.81002
H      4.94768   18.76063    3.44171
H      3.20085   21.96305    2.18101
H      2.96516   21.87299    3.93428
H      3.83220   19.55041    4.56515
H      6.08269   21.71812    1.22601
H      5.60106   20.01190    1.30501
H      8.22028   20.49295    1.43358
H      7.55906   19.43972    2.69294
H      9.55234   22.85218    2.18242
H      7.91096   23.57333    2.18507
H      8.98390   23.80812    3.60282
H     10.32245   20.77607    3.60471
H      9.87070   21.52247    5.17820
H      9.30598   19.86497    4.76463
C      4.01983   23.76680    5.73570
H      4.65893   23.72017    6.62600
H      3.39260   24.66854    5.81350
H      3.36911   22.88767    5.70704
C      5.60002   25.10139    4.56463
H      6.01427   25.25644    5.56562
H      6.43543   25.08915    3.85750
H      4.91929   25.93192    4.32104
H      5.67708   18.50109    5.88290
H      6.89119   19.27506    4.85128
C      4.71520   20.72118    6.93279
H      3.86200   20.85864    6.25933
H      4.53808   19.82191    7.54918
H      4.78908   21.58973    7.59660
C      7.08438   20.43202    7.09408
H      6.98760   19.49617    7.67151
H      8.02347   20.41757    6.53154
H      7.10817   21.28106    7.78456
C      2.82546   24.50108    3.23303
H      3.05847   25.56386    3.38860
H      2.36138   24.41547    2.23995
H      2.07992   24.18467    3.97489
C      4.98403   23.99622    2.09533
H      5.96404   23.51871    2.23077
H      4.54087   23.63787    1.15650
H      5.13377   25.07879    2.00065
