48

O      7.23878   23.11353    6.10614
Fe     6.40066   22.17627    4.94222
N      5.71863   20.30866    6.25349
C      5.55259   19.26683    5.20256
C      4.80907   19.72980    3.96817
N      5.22982   21.05207    3.46015
C      4.06737   21.89420    3.17046
C      4.43513   23.35399    3.08903
N      5.08165   23.79530    4.33409
C      6.15030   20.94926    2.30673
C      7.58210   20.77083    2.73799
N      8.02832   21.87617    3.60191
C      9.33986   21.59168    4.20374
C      8.12297   23.14257    2.86724
H      4.95088   18.96476    3.18932
H      3.34030   21.74150    3.97784
H      3.73065   19.76298    4.15508
H      6.03802   21.85482    1.69711
H      5.84476   20.11758    1.65326
H      8.23146   20.69946    1.84689
H      7.71505   19.83455    3.29824
H      8.87838   23.06132    2.06646
H      7.16369   23.39773    2.40532
H      8.42208   23.93790    3.56138
H     10.11699   21.63504    3.42219
H      9.55427   22.34123    4.97564
H      9.34856   20.59218    4.64675
H      5.11669   23.55010    2.25103
H      3.52384   23.94896    2.91006
C      4.17343   23.78813    5.47628
H      4.71153   24.17417    6.35048
H      3.82767   22.76966    5.67330
C      5.69921   25.12033    4.18610
H      6.31323   25.32878    5.07092
H      6.32341   25.14890    3.28792
H      4.90756   25.88182    4.09260
H      5.04882   18.37910    5.61851
H      6.56851   18.94890    4.93860
C      4.50181   20.52605    7.06374
F      3.46289   20.64590    6.23207
F      4.27045   19.52624    7.88511
F      4.62082   21.65522    7.74514
C      6.87996   19.94856    7.10910
F      6.81205   18.69901    7.51865
F      7.97131   20.08766    6.34990
F      6.96622   20.75734    8.14097
Br     3.13320   21.37144    1.56912
Br     2.58067   24.83491    5.24491
