25

O      0.63310   -0.46804   -2.26925
O     -0.27111   -2.30488   -0.34724
O      0.85585    1.86729   -0.67888
N      2.46407   -0.94971   -0.26083
O     -1.68152    0.36919   -0.56270
H     -0.86097   -2.71532    0.30154
H     -0.28573   -2.87641   -1.12965
H      1.37177    2.43167   -0.08402
H      1.08826    2.15961   -1.57387
H      2.69701   -1.43037   -1.13447
H     -1.87519    1.31798   -0.61096
H     -2.30809   -0.04608   -1.17407
Fe     0.45588   -0.27881   -0.55881
H      2.47176   -1.67311    0.46266
N      0.15015   -0.05070    1.61262
H     -0.86620   -0.14770    1.70657
H      0.31923    0.91698    1.90221
C      3.48130    0.06552    0.02502
H      4.48245   -0.38299    0.13997
H      3.51965    0.78684   -0.80313
H      3.23316    0.59629    0.95568
C      0.81102   -0.94559    2.57294
H      0.41765   -0.82308    3.59548
H      0.66684   -1.99312    2.27075
H      1.88957   -0.73553    2.60128
