28

O     12.53055    7.67685   13.11894
Fe    13.39768    7.86803   11.65302
O     14.51942    8.05114    9.82992
O     12.31422    9.54355   11.16790
O     15.25897    8.38351   12.43383
N     12.80811    5.95987   11.04913
C     13.40182    5.07305   10.34781
H     12.98475    4.06050   10.20988
H     11.93273    5.64374   11.48344
H     11.53053    9.65863   11.72716
H     15.39015    8.46774    9.91135
H     14.35959    5.31176    9.86340
C     12.29022   10.45917   10.06008
H     13.31424   10.52947    9.67375
H     11.60909   10.09470    9.27390
H     11.96769   11.45110   10.41369
C     16.12964    7.30006   12.78049
H     15.79525    6.81758   13.71471
H     16.10780    6.58316   11.94703
H     17.15621    7.68332   12.90245
C     14.17405    7.89464    8.44716
H     14.19717    8.86478    7.92526
H     14.86584    7.19268    7.95282
H     13.15309    7.49127    8.41064
C     15.27085    9.45814   13.38313
H     16.28727    9.88186   13.43215
H     14.56907   10.22132   13.01915
H     14.96318    9.09615   14.37747
