21

O     -2.58376    1.41242    1.84029
Fe    -2.66505    1.60270    0.13861
H     -4.87423    3.45973   -0.37663
N     -2.38940    2.33208   -1.90918
H     -1.38681    2.33598   -2.14229
H     -2.84986    1.79307   -2.64880
N     -0.45632    1.81866    0.20624
H     -0.12970    1.85039    1.18088
N     -3.89406   -0.11047   -0.27960
H     -3.78532   -0.77842    0.48977
H     -4.88947    0.13378   -0.29237
H     -4.65150    3.25971    1.14085
H     -3.71671   -0.63632   -1.14007
H     -2.69549    3.29886   -2.05669
O     -4.31846    2.99979    0.26924
N     -0.81013    0.47275   -0.12701
H     -0.44684   -0.20242    0.55372
H     -0.42885    0.25783   -1.05407
N      0.35380    2.40199   -0.75009
H      0.26814    3.41765   -0.67868
H      1.34338    2.15471   -0.62718
