21

O     12.26728    7.26534   13.29546
Fe    13.21890    7.51100   11.94596
N     14.70754    7.74311   10.13212
O     12.07270    8.33298   10.43900
O     14.69219    8.92195   12.55819
O     13.79548    5.55589   11.43165
C     14.13767    8.83355    9.33883
H     14.51583    9.80633    9.70243
H     14.43415    8.78896    8.27785
C     12.63876    8.87541    9.48826
C     15.97997    8.06578   10.74822
H     16.45390    7.13247   11.11179
C     15.77458    8.90988   11.98595
C     14.72950    6.46007    9.43577
H     14.00597    6.45020    8.59725
H     15.70693    6.24840    8.95955
C     14.31755    5.34624   10.34056
H     14.46661    4.29770   10.00051
H     16.63435    9.49067   12.38437
Br    11.70664    9.82056    8.22897
Br    17.26871    8.88376    9.57207
