20

O      0.41372   -0.40374   -2.18253
P      2.46030   -0.46064    0.03157
O     -2.07443    0.40312   -0.68303
O     -0.51982    0.20141    1.63569
H      3.36357    0.33711   -0.71706
H      2.96267   -1.75497   -0.26106
H     -2.60130    0.73562    0.07083
H     -0.36119   -0.33698    2.43494
Fe     0.05544   -0.07274   -0.54754
H      2.95644   -0.26569    1.34772
P      0.57384    2.40355   -0.53470
H      1.23242    3.01431    0.56341
H      1.44511    2.76275   -1.59508
H     -0.48824    3.31806   -0.75424
P     -0.54720   -2.48450   -0.18003
H      0.42044   -3.40944   -0.64707
H     -0.91884   -3.08164    1.05396
H     -1.65814   -2.83515   -0.98948
Cl    -1.25796    1.63566    2.21071
Cl    -2.68983    1.22051   -2.04752
