54

O      7.52642   22.92160    6.17814
Fe     6.39844   22.29563    5.00219
P      5.93877   20.49501    6.35693
C      5.82738   19.03665    5.25723
C      4.83427   19.36024    4.15636
P      5.16871   21.06787    3.59519
C      3.65177   22.03923    3.40123
C      4.11515   23.48143    3.39073
N      5.00198   23.82321    4.52528
C      5.98763   20.97637    1.95853
C      7.46532   20.72434    2.19747
P      8.04167   21.92448    3.46045
C      9.50588   21.23819    4.25443
C      8.58571   23.39307    2.55903
H      4.89675   18.66197    3.30666
H      3.11140   21.78788    2.47388
H      2.98364   21.81697    4.24713
H      3.79773   19.32813    4.52889
H      5.82775   21.94838    1.46310
H      5.51080   20.20440    1.33195
H      8.05959   20.80760    1.27256
H      7.63517   19.71386    2.60472
H      9.46337   23.14480    1.93999
H      7.77876   23.76091    1.90937
H      8.85598   24.17574    3.28393
H     10.30330   21.07982    3.51038
H      9.83723   21.94884    5.02654
H      9.25346   20.28156    4.73333
H      4.68591   23.67835    2.47076
H      3.25082   24.16902    3.37918
C      4.23514   23.89632    5.77150
H      4.91654   24.06081    6.61339
H      3.49870   24.71901    5.73537
H      3.70278   22.95180    5.92988
C      5.64671   25.12183    4.19508
H      6.24990   24.93715    3.29397
H      4.83979   25.81837    3.89802
H      5.55244   18.13444    5.82663
H      6.83858   18.87334    4.85030
C      4.35560   20.55847    7.25546
H      3.57561   20.71398    6.49194
H      4.39145   21.48446    7.85262
C      7.22590   20.11560    7.55805
H      7.07934   19.10295    7.96326
H      8.20762   20.18866    7.07091
H      7.18924   20.85041    8.37319
C      6.48937   25.74987    5.27113
H      5.89484   26.05278    6.14457
H      7.29504   25.08095    5.59989
H      6.93963   26.66627    4.86013
C      4.05963   19.34878    8.11963
H      4.01671   18.41929    7.53253
H      4.80791   19.22318    8.91549
H      3.07967   19.47571    8.60647
