28

O     11.84146    7.56363   12.91640
Fe    13.07337    7.62934   11.79417
N     14.62192    7.78818   10.12801
N     12.04324    8.45389   10.28847
O     14.64707    8.78225   12.65072
O     13.74752    5.68024   11.53753
C     14.14960    8.87498    9.26915
H     14.53902    9.83773    9.64503
H     14.52346    8.78513    8.23333
C     12.65267    9.00252    9.29160
C     15.90705    8.07375   10.75823
H     16.44998    7.13578   10.98634
H     16.59861    8.64681   10.11110
C     15.73141    8.75211   12.08082
C     14.57998    6.48401    9.47287
H     13.73781    6.45665    8.75726
H     15.48727    6.26841    8.87992
C     14.28637    5.37947   10.46270
H     16.62204    9.20954   12.56609
H     11.02833    8.58614   10.33000
C     11.99175    9.76763    8.21972
H     12.51354   10.72714    8.05736
H     12.08471    9.21143    7.26832
H     10.92870    9.95388    8.42577
C     14.61967    3.99038   10.11703
H     14.46551    3.79410    9.04302
H     15.70447    3.84942   10.29668
H     14.06766    3.27822   10.74567
