30

O     11.82493    7.06702   12.84270
Fe    13.11249    7.40578   11.79364
N     14.68930    7.71346   10.18930
N     12.26778    8.82729   10.58018
F     14.63857    8.44472   12.90259
N     13.86730    5.53218   11.49059
C     14.33338    8.86875    9.36863
H     15.01333    9.71951    9.55815
H     14.45950    8.67891    8.28945
C     12.95363    9.34525    9.63080
C     15.91781    7.93472   10.97276
H     16.22632    6.97052   11.40368
H     16.75305    8.28896   10.34245
C     15.70736    8.91780   12.08942
C     14.73065    6.42593    9.42623
C     14.53190    5.31528   10.41872
H     12.55358   10.16015    9.00261
H     14.89504    4.30924   10.15104
H     16.59600    8.98655   12.73595
H     13.68120    4.72270   12.09107
H     11.32621    9.20778   10.71988
H     15.41600    9.92759   11.75935
C     16.00474    6.24500    8.61491
H     16.13442    7.08413    7.91544
H     16.90224    6.16508    9.24325
H     15.93413    5.32816    8.01148
C     13.49693    6.28646    8.52324
H     13.59283    6.90899    7.62221
H     13.40586    5.24723    8.17250
H     12.57245    6.53960    9.06264
