30

O     11.76430    7.22161   12.92311
Fe    13.04199    7.42835   11.82876
N     14.63991    7.71973   10.26084
N     12.09519    8.47196   10.38309
F     14.56398    8.51606   12.91726
N     13.69523    5.51548   11.49235
C     14.23156    8.82612    9.39987
H     14.68429    9.77082    9.74537
H     14.58882    8.70522    8.36258
C     12.74606    9.03768    9.42237
C     15.87400    7.96926   11.02223
H     16.19031    7.01266   11.46536
H     16.70088    8.31997   10.37906
C     15.65537    8.96734   12.12441
C     14.68826    6.44584    9.50534
H     13.83844    6.48073    8.79302
C     14.32761    5.30262   10.40057
H     14.58205    4.28291   10.06546
H     16.53209    9.03269   12.78739
H     13.43108    4.68748   12.03597
H     11.08818    8.65652   10.41065
H     15.38497    9.97771   11.77843
C     15.95684    6.20250    8.70618
H     16.17607    7.05629    8.04904
H     16.82738    6.02088    9.35191
H     15.82450    5.32041    8.06153
C     12.13692    9.88810    8.38280
H     12.71980   10.81603    8.25201
H     12.18924    9.36019    7.41238
H     11.08803   10.13499    8.59771
