46

O     -0.10409   -3.50782    0.95963
Fe    -0.15939   -2.27191    2.11647
N      1.93696   -2.14932    2.64294
N      0.25442   -0.42812    1.11351
N     -2.22361   -1.86083    2.56545
N     -0.18770   -3.17752    4.08679
C     -0.20715   -0.46507   -0.28158
C      1.72701   -0.28085    1.13553
C      2.30720   -0.74723    2.44522
C     -0.35860    0.68776    1.85596
C     -1.85971    0.60243    2.07334
C     -2.34611   -0.46778    3.03428
C     -3.08296   -2.12237    1.40084
C      0.94341   -2.58234    4.81187
C      2.20117   -2.68808    3.98256
C     -0.04212   -4.63136    3.92451
C     -1.47753   -2.84911    4.70098
C     -2.54699   -2.82154    3.63176
H      0.06777   -5.11767    4.90883
H     -0.92719   -5.03697    3.41972
H      0.82656   -4.86565    3.29834
H     -2.91479   -3.14961    1.05371
H     -4.14146   -1.99080    1.67766
H     -2.83942   -1.43399    0.58615
H      0.08751    0.45863   -0.80816
H      0.23161   -1.33548   -0.78599
H     -1.29748   -0.55456   -0.32220
H      2.00738    0.76564    0.92624
H      2.13150   -0.89408    0.31528
H      1.92027   -0.16119    3.29306
H      3.40336   -0.61422    2.44387
H      3.02793   -2.14974    4.47413
H      2.52239   -3.73408    3.88446
H     -1.75403   -3.58510    5.47322
H     -1.41249   -1.87319    5.20066
H     -2.62226   -3.80457    3.14351
H     -1.79109   -0.35939    3.97702
H     -3.40520   -0.27007    3.26564
H     -2.39926    0.55566    1.11666
H      0.12397    0.76473    2.84204
H     -0.14300    1.62897    1.31977
H      0.69917   -1.52345    4.99773
H      1.07951   -3.06212    5.79768
H      2.41114   -2.71929    1.93955
Cl    -2.32111    2.14732    2.81094
Cl    -4.11867   -2.52050    4.37922
