27

O     12.04195    7.31741   13.05915
Fe    13.16485    7.51413   11.83925
N     14.68739    7.77356   10.12090
O     12.08489    8.40142   10.32748
O     14.71725    8.71082   12.66733
O     13.82516    5.60005   11.44145
C     14.17470    8.88049    9.31786
H     14.53648    9.84248    9.72538
H     14.52432    8.85319    8.26968
C     12.66864    8.96886    9.39155
C     15.97219    8.06692   10.74797
H     16.53320    7.13362   10.95109
H     16.64917    8.66687   10.10950
C     15.79637    8.71382   12.08571
C     14.66808    6.49499    9.41619
H     13.84280    6.48464    8.68059
H     15.58770    6.30735    8.83256
C     14.36764    5.34908   10.35476
H     16.68123    9.18187   12.57127
C     14.69913    3.97608    9.95117
H     14.12514    3.23958   10.53054
H     14.57677    3.83166    8.86516
H     15.77686    3.81779   10.15916
C     11.93842    9.73945    8.37618
H     12.51850   10.61125    8.03199
H     11.81371    9.08627    7.48869
H     10.93962   10.02572    8.73412
