22

O      0.74704   -0.44903   -2.00162
O     -0.34566   -2.19402   -0.10552
O      0.64113    1.91274   -0.20311
N      2.36465   -0.28093    0.11478
O     -1.80806    0.62464   -0.54485
O     -0.31393   -0.04496    1.78775
H     -0.92920   -2.55007    0.58074
H     -0.39136   -2.80413   -0.85754
H      0.51026    2.36259    0.64512
H      1.63738    1.88714   -0.35615
H     -1.85186    1.52823   -0.89742
H     -2.53851    0.15041   -0.97126
H     -0.02516   -0.44835    2.61911
H     -1.18095    0.34521    1.97725
Fe     0.22898   -0.15967   -0.38894
H      2.47410   -0.06468    1.11185
N      3.01964   -1.50564   -0.11635
H      2.77945   -2.17153    0.62086
H      2.69289   -1.87557   -1.01268
N      2.95421    0.79484   -0.58005
H      3.95852    0.84549   -0.36567
H      2.85724    0.58662   -1.57878
