29

O     11.88534    7.23664   12.98174
Fe    13.06962    7.49010   11.80513
N     14.58797    7.78815   10.12699
N     11.97279    8.30860   10.31820
O     14.54211    8.79230   12.62563
N     13.74028    5.57852   11.41869
C     14.05716    8.89210    9.33113
H     14.37971    9.85131    9.77189
H     14.44085    8.89631    8.29660
C     12.55408    8.92547    9.34588
C     15.88050    8.08485   10.76918
H     16.28679    7.11410   11.12614
C     15.63331    8.80392   12.06685
C     14.61242    6.52190    9.39832
H     13.84180    6.52613    8.60500
H     15.56842    6.35223    8.86919
C     14.29033    5.36769   10.28240
H     14.50797    4.34987    9.91467
H     16.48836    9.32661   12.54932
H     13.50322    4.74620   11.96846
H     10.95164    8.38000   10.34854
C     11.85806    9.68754    8.29287
H     12.32175   10.68208    8.17097
H     11.99336    9.17286    7.32361
H     10.78373    9.80221    8.49252
C     16.93907    8.73640    9.89697
H     17.89266    8.78832   10.44428
H     17.11565    8.14150    8.98933
H     16.66530    9.75933    9.60193
