29

O     11.83027    7.21226   12.98747
Fe    13.05743    7.45927   11.85242
N     14.62630    7.71780   10.20965
N     12.03505    8.35665   10.35745
O     14.56532    8.66876   12.75377
N     13.74582    5.54885   11.51003
C     14.15968    8.84372    9.40437
H     14.53561    9.78976    9.83238
H     14.54909    8.81164    8.37160
C     12.66090    8.95796    9.40300
C     15.88511    7.98915   10.89035
H     16.40141    7.04329   11.14395
H     16.61432    8.55345   10.28015
C     15.66316    8.65969   12.20849
C     14.61502    6.44875    9.45184
H     13.72290    6.49599    8.79475
C     14.29853    5.31605   10.37954
H     14.51755    4.29006   10.03840
H     16.53415    9.12938   12.71717
H     13.50858    4.72726   12.07580
H     11.01831    8.47856   10.37259
C     12.01888    9.76931    8.35241
H     12.53740   10.73813    8.24604
H     12.13495    9.25783    7.37899
H     10.95042    9.94037    8.54309
C     15.82742    6.19219    8.57406
H     16.01018    7.04277    7.90180
H     16.73845    6.00470    9.16052
H     15.64929    5.30825    7.94295
