28

O     12.68904    7.38834   13.12144
Fe    13.47256    7.44027   11.59237
O     14.54316    7.28784    9.74019
O     12.40267    9.06619   10.83623
O     15.24035    8.04375   12.45843
N     12.86966    5.46564   11.28008
C     12.64351    4.80478   10.21158
H     12.22754    3.78267   10.23455
H     15.22713    7.97609   13.42577
H     12.61694    4.97775   12.14763
H     11.51311    9.13465   11.21883
H     12.86027    5.25561    9.23311
C     12.96970   10.38609   10.73904
H     13.93059   10.28911   10.21737
H     12.30087   11.02816   10.14374
H     13.12371   10.81947   11.74125
C     16.39650    8.77596   12.02131
H     17.30867    8.18860   12.21438
H     16.28549    8.94424   10.94400
H     16.44677    9.74498   12.54376
C     15.68280    6.42894    9.66680
H     15.47983    5.58169    8.99046
H     16.55720    6.98738    9.29432
H     15.88749    6.05374   10.67857
C     14.17947    7.83815    8.47152
H     14.95449    8.54460    8.12909
H     14.07325    7.03173    7.72646
H     13.22041    8.35569    8.59450
