32

O      0.65938    0.55427    3.15534
O      0.31970   -1.99177    0.76831
C      1.12884   -1.91839   -0.42098
H      0.56580   -1.42451   -1.22831
H      1.40792   -2.93551   -0.73754
C     -1.01363   -2.40539    0.68985
C      2.33116   -1.11529    0.00774
H      2.88770   -1.68049    0.77061
H      3.00582   -0.95703   -0.85079
C     -1.82428   -1.51161   -0.23798
H     -2.89877   -1.62496   -0.02660
H     -1.63559   -1.78096   -1.29235
C      1.76771    1.30836   -0.29402
H      2.74712    1.63875   -0.68151
H      1.16485    0.99084   -1.15871
C     -2.22206    0.91612   -0.08366
H     -2.89495    0.94082    0.79311
H     -2.83206    0.84522   -0.99898
C     -1.29008    2.10144   -0.15236
H     -0.79088    2.10244   -1.13184
H     -1.85507    3.04465   -0.07181
C      1.08717    2.43684    0.45184
H      1.66640    2.69942    1.35126
H      1.03049    3.34009   -0.17902
N     -0.25404    2.01284    0.89238
Fe     0.06273    0.02401    1.65182
N      1.91590    0.16094    0.60809
O     -1.34660   -0.20787    0.02425
H      2.57279    0.40957    1.35139
H     -0.52637    2.56494    1.70881
Br    -1.22355   -4.22974    0.28224
Br    -1.60512   -1.94362    2.53175
