28

O     11.83273    7.53360   12.77579
Fe    13.08704    7.65918   11.69006
N     14.63190    7.78166   10.02731
N     12.15749    8.83452   10.33129
O     14.70170    8.70580   12.59381
O     13.82438    5.73160   11.50332
C     14.25810    8.92083    9.18642
H     14.83327    9.81519    9.49262
H     14.51731    8.77806    8.12231
C     12.83012    9.29947    9.34674
C     15.92469    7.98140   10.68081
H     16.41827    7.01182   10.88784
H     16.65414    8.52885   10.05401
C     15.78212    8.63358   12.02048
C     14.54599    6.46090    9.36721
H     15.45441    6.27006    8.76610
C     14.41078    5.41143   10.45771
H     12.39346   10.01750    8.63108
H     16.69589    9.03074   12.51592
H     11.18941    9.15741   10.43080
C     14.92770    4.05194   10.24679
H     14.96657    3.77832    9.18226
H     15.97563    4.04399   10.61030
H     14.37012    3.31540   10.84330
C     13.32118    6.28683    8.47735
H     13.34132    6.97974    7.62458
H     13.31681    5.27161    8.05457
H     12.38576    6.42178    9.03918
