46

O     -0.08091   -3.53421    1.00219
Fe    -0.17276   -2.27808    2.13352
N      1.91472   -2.15018    2.67351
N      0.24783   -0.43526    1.08946
N     -2.23729   -1.86629    2.55120
N     -0.20776   -3.17091    4.10554
C     -0.25246   -0.50560   -0.29107
C      1.72695   -0.36034    1.07147
C      2.32085   -0.77242    2.39077
C     -0.33913    0.65348    1.86822
C     -1.83884    0.57964    2.08312
C     -2.30104   -0.49490    3.04784
C     -3.08304   -2.11172    1.37587
C      0.89080   -2.53106    4.83941
C      2.16922   -2.62514    4.04001
C     -0.01360   -4.61974    3.95768
C     -1.52699   -2.87991    4.68708
C     -2.56689   -2.85690    3.60038
H      0.10064   -5.09320    4.94790
H     -0.88098   -5.05528    3.44713
H      0.86851   -4.83404    3.34323
H     -2.86102   -3.11273    0.98633
H     -4.14663   -2.04209    1.65391
H     -2.87865   -1.37433    0.59441
H      0.10322    0.36361   -0.86637
H      0.10587   -1.43555   -0.74931
H     -1.34615   -0.50324   -0.30075
H      2.03647    0.66106    0.79336
H      2.07451   -1.03872    0.27772
H      1.97655   -0.12799    3.21434
H      3.42003   -0.67399    2.35627
H      2.96595   -2.03703    4.52321
H      2.52971   -3.66189    3.99366
H     -1.79505   -3.63216    5.44821
H     -1.47977   -1.91698    5.21540
H     -3.56337   -2.63028    4.01615
H     -2.63150   -3.83543    3.10399
H     -1.67985   -0.44647    3.95486
H     -2.11820    1.53538    2.54681
H     -2.39155    0.55320    1.13541
H      0.16455    0.66488    2.84700
H      0.61744   -1.47325    4.99129
H      1.01765   -2.98089    5.84065
H      2.37004   -2.76971    2.00038
Br     0.07688    2.39237    1.09908
Br    -4.08746   -0.04206    3.67045
