54

O      7.54424   22.97473    6.08342
Fe     6.40350   22.15915    5.01796
N      6.14465   20.39976    6.20612
C      5.92899   19.21072    5.35302
C      4.83182   19.42114    4.32730
P      5.12829   21.05672    3.59555
C      3.64610   22.04963    3.23504
C      4.17434   23.47252    3.39443
N      5.02314   23.74713    4.58630
C      6.13093   20.85516    2.09260
C      7.55646   20.68677    2.57275
N      7.92245   21.69587    3.58919
C      9.20549   21.34293    4.20588
C      8.02102   23.02669    2.98165
H      4.84640   18.63021    3.56113
H      3.42694   21.92307    2.15993
H      3.83030   19.41417    4.78198
H      6.00310   21.75325    1.46834
H      5.79843   19.99170    1.49417
H      8.26792   20.73881    1.72906
H      7.68461   19.69657    3.03168
H      8.76220   23.02929    2.16269
H      7.04768   23.31740    2.56637
H      8.32596   23.74972    3.74879
H     10.01322   21.38348    3.45514
H      9.41551   22.04604    5.02134
H      9.15316   20.32124    4.60178
H      4.79801   23.71291    2.52047
H      3.33492   24.19029    3.38322
C      4.20762   23.78700    5.80683
H      4.85396   23.96869    6.67211
H      3.45841   24.59520    5.74431
H      3.68712   22.83636    5.93379
C      5.61477   25.10009    4.34013
H      6.22531   25.01630    3.43144
H      4.76278   25.75595    4.08036
H      5.69934   18.34057    5.99435
H      6.88480   18.99520    4.85653
C      4.96839   20.64797    7.04616
H      4.08309   20.80559    6.42051
H      4.78153   19.78819    7.71328
H      5.14259   21.53894    7.66012
C      7.30900   20.15819    7.07177
H      7.14503   19.24913    7.67524
H      8.20845   20.02861    6.46174
H      7.45668   21.01463    7.73635
C      2.40415   21.64301    4.00840
H      1.62161   22.40566    3.87518
H      2.00733   20.69275    3.62212
H      2.56602   21.52314    5.08768
C      6.40778   25.73072    5.44969
H      5.80371   25.92009    6.34785
H      7.28418   25.13015    5.72082
H      6.75718   26.71123    5.09086
