49

O     -0.31111   -3.26750    0.74662
Fe    -0.20775   -2.12499    2.00886
N      1.90082   -2.11489    2.53573
N      0.17350   -0.28868    1.14055
N     -2.25094   -1.88686    2.55614
O     -0.20908   -2.76499    4.02085
C     -0.32985   -0.17388   -0.23102
C      1.69104   -0.10404    1.10128
C      2.28250   -0.70610    2.36334
C      2.63147   -2.97938    1.59649
C     -0.43873    0.71465    2.03687
C     -1.93659    0.59722    2.24067
C     -2.39681   -0.53705    3.13255
C     -3.14428   -2.09262    1.41136
C      0.90437   -2.31011    4.80176
C      2.09914   -2.59554    3.91149
C     -1.47243   -2.89354    4.66385
C     -2.49395   -2.94099    3.55725
H     -2.98022   -3.09570    0.99938
H     -4.19753   -1.98365    1.72206
H     -2.93105   -1.35951    0.62673
H     -0.03050    0.80038   -0.65229
H      0.07757   -0.99328   -0.83733
H     -1.42202   -0.24330   -0.24956
H      1.99653   -0.70902    0.23597
H      2.45303   -2.65306    0.56539
H      3.71458   -2.94917    1.80640
H      2.26563   -4.00964    1.69035
H      1.91823   -0.14579    3.23318
H      3.38142   -0.60859    2.32193
H      3.02677   -2.18573    4.34731
H      2.21592   -3.68619    3.86702
H     -1.50229   -3.82175    5.25933
H     -1.64206   -2.04168    5.34106
H     -3.51233   -2.85573    3.97737
H     -2.43091   -3.90645    3.03182
H     -1.80036   -0.50561    4.05497
H     -3.45556   -0.39145    3.41509
H     -2.24590    1.52500    2.74864
H     -2.48342    0.61585    1.28705
H      0.05773    0.62616    3.01702
H     -0.19170    1.70792    1.62538
H      0.95685   -2.97217    5.68918
N      0.74636   -0.92057    5.10684
H      1.64175   -0.52082    5.38623
H      0.13518   -0.78375    5.91193
N      2.05297    1.23479    0.88613
H      2.59249    1.43190    0.05206
H      2.38673    1.75683    1.68836
