49

O     -0.43668   -3.46567    0.91032
Fe    -0.20926   -2.20389    2.03919
N      1.91202   -2.28788    2.48336
N      0.21607   -0.36440    1.10634
N     -2.22614   -1.81923    2.61129
O     -0.15883   -2.61981    4.05420
C     -0.22090   -0.41347   -0.29588
C      1.68858   -0.23260    1.15928
C      2.25907   -0.85993    2.40615
C      2.60925   -3.07962    1.46308
C     -0.40509    0.81799    1.83103
C     -1.90196    0.63447    2.04834
C     -2.32858   -0.41731    3.04854
C     -3.16140   -2.11907    1.52238
C      1.12299   -2.46923    4.84476
C      2.16235   -2.85295    3.81050
C     -1.37467   -2.62462    4.77589
C     -2.46227   -2.74201    3.73785
H     -3.04854   -3.16994    1.22990
H     -4.19981   -1.92895    1.84424
H     -2.94110   -1.49521    0.64917
H      0.12499    0.48310   -0.83391
H      0.19026   -1.31324   -0.77091
H     -1.31411   -0.46888   -0.35176
H      1.94316    0.83850    1.09200
H      2.10944   -0.70466    0.26264
H      2.37273   -2.70450    0.46088
H      3.70145   -3.03672    1.61736
H      2.26892   -4.12095    1.52283
H      1.86077   -0.36337    3.30434
H      3.35577   -0.72541    2.42819
H      3.16370   -2.57169    4.17877
H      2.14089   -3.94828    3.71051
H     -1.41326   -3.48552    5.46357
H     -1.45913   -1.70537    5.38350
H     -3.45301   -2.55735    4.19078
H     -2.46725   -3.76123    3.32229
H     -1.71828   -0.30411    3.95670
H     -3.37600   -0.22887    3.34800
H     -2.25239    1.59450    2.45773
H     -2.43001    0.52945    1.08905
H      0.07926    0.81119    2.82166
H      1.14899   -1.39934    5.11380
N      1.20376   -3.23227    5.97659
H      0.84093   -2.88787    6.85546
H      1.33238   -4.23488    5.90941
N     -0.05379    2.01935    1.16483
H      0.25873    2.76294    1.78042
H     -0.76963    2.37604    0.53764
