20

O     -0.03963    0.30643   -2.06635
O     -0.75415   -2.04595   -0.62262
O      0.32951    2.07712    0.16378
N      2.17681   -0.20036   -0.35259
N     -2.13288    0.58418   -0.15040
H     -0.34634   -2.82052   -0.20669
H     -0.91861   -2.30882   -1.54163
H      1.11121    2.31588    0.68866
H      0.30669    2.71202   -0.56951
H     -2.29714    1.28888    0.57402
H     -2.47319    0.98902   -1.02790
Fe    -0.06846    0.00347   -0.37221
H      2.52335    0.25460   -1.20996
H     -2.75197   -0.20573    0.05478
N      0.01512   -0.50008    1.76667
H     -0.77670   -1.06921    2.08159
H      0.85180   -1.01624    2.05590
H      0.00178    0.32949    2.36754
Br     3.17273    0.65352    1.02690
Br     2.65661   -2.01844   -0.60608
