22

O      0.77016    0.14335   -2.10087
O     -0.03748   -2.21171   -0.74801
O     -0.04086    1.98633   -0.04166
P      2.42107   -0.28071    0.23214
O     -2.18548    0.07721   -0.90502
O     -0.77337   -0.29688    1.38411
H     -0.48707   -2.87706   -0.20806
H      0.26388   -2.65394   -1.55533
H     -0.02510    2.26123    0.88755
H      0.47584    2.63939   -0.53726
H      3.15699   -1.28687   -0.44121
H      2.75693   -0.55074    1.58535
H     -0.57616   -0.84156    2.15713
H     -1.77166   -0.20406    1.28158
Fe     0.04922   -0.09527   -0.55351
H      3.22495    0.85833   -0.02486
N     -2.63129    0.54458   -2.12608
H     -2.89017    1.53384   -2.02805
H     -3.46493    0.00888   -2.39573
N     -3.04218    0.18302    0.21725
H     -3.37873    1.15342    0.27559
H     -3.85314   -0.42844    0.05542
