25

O     12.33876    7.09379   13.38866
Fe    13.35819    7.38630   12.09967
N     14.67905    7.73808   10.18542
O     12.17343    8.54750   10.73580
O     14.92465    8.57654   12.72096
O     14.11720    5.57104   11.68498
C     14.15789    8.87470    9.45535
H     14.68485    9.80746    9.73661
H     14.28733    8.79299    8.35838
C     12.71477    9.10720    9.79170
C     16.04145    7.88291   10.72652
H     16.71701    8.33739    9.97889
C     15.92520    8.74410   11.99233
C     14.56316    6.44442    9.52212
H     13.53337    6.31126    9.14837
H     15.25972    6.31978    8.67325
C     14.80152    5.45767   10.63432
H     12.13573    9.82552    9.16987
H     15.28138    4.48368   10.41601
N     16.89817    9.58352   12.29000
H     17.71300    9.71203   11.69658
H     16.85625   10.11495   13.16071
N     16.50731    6.55550   11.06551
H     16.59695    6.36321   12.06421
H     17.35758    6.26975   10.57831
