29

O     11.94308    7.01583   13.07321
Fe    13.08625    7.36283   11.87697
N     14.64146    7.64602   10.22709
N     12.03600    8.35160   10.40791
O     14.57159    8.61452   12.76299
N     13.78876    5.50940   11.52642
C     14.17840    8.77271    9.41810
H     14.61567    9.71904    9.78786
H     14.50774    8.70440    8.36488
C     12.70070    8.94155    9.48689
C     15.89794    7.91617   10.91290
H     16.40183    6.96717   11.17948
H     16.63528    8.46858   10.30181
C     15.67152    8.60255   12.22261
C     14.64062    6.37618    9.46696
H     13.73153    6.40676    8.83483
C     14.36209    5.22066   10.40633
H     12.21838    9.60558    8.74863
H     16.53910    9.08197   12.72798
H     13.54965    4.71205   12.12298
H     11.02647    8.53000   10.42130
C     14.68418    3.84489    9.98507
H     14.25432    3.64476    8.98819
H     15.77624    3.73408    9.86876
H     14.31743    3.09348   10.69763
C     15.83958    6.18924    8.55598
H     15.99257    7.08068    7.93074
H     16.76523    5.99501    9.11618
H     15.67646    5.34603    7.87097
