19

O      0.03490   -0.01587   -2.10953
O     -0.48818   -2.07137   -0.20697
O      0.57946    2.03532   -0.18683
N      2.19148   -0.52248   -0.13422
N     -2.08671    0.48313   -0.30952
O     -0.03225    0.00903    1.77442
H     -0.30916   -2.60806    0.57972
H     -0.49968   -2.67833   -0.96284
H      0.37293    2.54629    0.61048
H      0.54581    2.65674   -0.93033
H      2.56971   -0.95149   -0.98907
H     -2.37001    0.90107   -1.20568
H      0.64524   -0.32536    2.38134
H     -0.77954    0.31088    2.31285
Fe     0.05464   -0.01989   -0.40098
H      2.74901    0.32806    0.02570
H     -2.65538   -0.36762   -0.19886
Cl    -2.60925    1.58020    0.92324
Cl     2.59312   -1.60904    1.15556
