28

O     12.54425    7.51493   12.85666
Fe    13.62034    7.54092   11.52189
O     14.82854    7.68883    9.66439
O     12.66012    9.16436   10.56502
O     15.23318    8.16961   12.61514
N     13.59333    5.52553   11.20819
C     12.93602    4.83778   10.32767
H     15.06511    8.20616   13.56945
H     14.02437    4.95001   11.93868
H     11.72491    9.21439   10.81963
H     14.59784    8.23076    8.89570
H     15.35552    6.95390    9.31882
C     13.21586   10.49235   10.61271
H     14.26049   10.42208   10.28011
H     12.65902   11.14806    9.92387
H     13.17957   10.89706   11.63798
C     16.63432    8.35699   12.34375
H     17.21552    7.51057   12.74558
H     16.74528    8.40948   11.25389
H     16.97296    9.30312   12.79596
C     12.17270    5.53418    9.26256
H     12.35111    6.61787    9.24265
H     12.40766    5.10513    8.27472
H     11.09539    5.34891    9.41983
C     12.89887    3.35709   10.36080
H     11.84914    3.01837   10.41079
H     13.29691    2.95606    9.41230
H     13.46030    2.92839   11.20266
