23

O     -0.08201    0.20857   -2.09666
O     -0.45247   -1.90690    0.11144
O      0.42367    2.23090   -0.15361
N      2.15471   -0.49032   -0.11252
N     -2.11932    0.26471   -0.28371
O     -0.17655    0.14037    1.87973
H     -0.06144   -2.67817   -0.32499
H     -1.43080   -1.87143   -0.18180
H      0.76620    2.76230    0.58007
H      0.58698    2.74745   -0.95718
H      2.80128    0.30478   -0.10741
H      2.48807   -1.10013   -0.86563
H     -0.23611   -0.76281    2.22800
H      0.03644    0.70296    2.63808
Fe     0.08099    0.10543   -0.38038
H      2.33145   -0.99756    0.75936
H     -2.32131    0.28298    0.72158
N     -2.70599    1.39853   -0.86913
H     -2.67732    2.18245   -0.21597
H     -2.16841    1.64047   -1.70459
N     -2.64759   -0.94785   -0.77860
H     -2.49040   -0.94596   -1.79094
H     -3.66509   -0.98045   -0.63219
