16

O     -3.34511    1.32124    1.82432
Fe    -2.84859    1.67900    0.23815
O     -3.88421    3.48929    0.16213
H     -3.90886    4.20100   -0.49540
N     -2.30492    1.94060   -1.85547
H     -1.71597    2.75289   -2.06977
H     -1.80050    1.13290   -2.23680
O     -0.81133    1.62705    0.70419
H     -0.51588    1.40933    1.60200
H     -0.01723    1.66733    0.15008
N     -3.94202   -0.05941   -0.34970
H     -4.40235   -0.44897    0.48685
H     -4.40934    3.78824    0.92107
H     -3.12731    2.03484   -2.46136
Br    -5.34232    0.29807   -1.56008
Br    -2.69858   -1.38545   -0.87521
