16

O     -3.25670    1.26424    1.83464
Fe    -2.92266    1.72734    0.23307
O     -3.82156    3.60406    0.43213
H     -4.00366    4.30972   -0.20671
N     -2.62821    2.15623   -1.88283
H     -2.07700    2.99381   -2.10021
H     -2.15839    1.38782   -2.37388
O     -0.86003    1.48597    0.43820
H     -0.48084    1.18475    1.27877
H     -0.11705    1.67238   -0.15564
N     -4.02575   -0.00482   -0.35530
H     -4.31595   -0.50741    0.49715
H     -4.24697    3.86245    1.26458
H     -3.51296    2.27625   -2.38784
Br    -2.99930   -1.24838   -1.33293
Br    -5.64422    0.55840   -1.15640
