27

O     11.96398    6.92622   13.09640
Fe    13.07292    7.25067   11.85567
N     14.61896    7.61139   10.18142
N     12.00732    8.25390   10.38707
O     14.57272    8.54369   12.72315
N     13.85751    5.46233   11.55732
C     14.13148    8.72845    9.38111
H     14.55973    9.68157    9.74301
H     14.45205    8.66179    8.32385
C     12.65120    8.87211    9.47019
C     15.88147    7.88093   10.84683
H     16.39849    6.93248   11.09377
H     16.60117    8.45855   10.23669
C     15.66530    8.54699   12.17343
C     14.60222    6.33112    9.42174
H     13.62850    6.31562    8.90010
C     14.49296    5.19703   10.44310
H     12.15068    9.54052    8.74825
H     16.53651    9.02689   12.67264
H     13.68958    4.68196   12.19457
H     10.99566    8.41891   10.41012
N     14.99318    4.04018   10.05920
H     14.90780    3.18590   10.60321
H     15.43666    4.01986    9.13869
N     15.60863    6.08766    8.46771
H     16.56837    6.22004    8.77456
H     15.45618    6.47675    7.54282
