26

O     11.89309    7.69614   12.99305
Fe    13.15244    7.68774   11.89740
N     14.65713    7.69977   10.22981
N     12.10314    8.39285   10.28600
O     14.61330    8.88358   12.61439
O     13.69245    5.63076   11.66128
C     14.26518    8.79949    9.29035
H     14.57886    9.73775    9.78887
C     12.75763    8.88784    9.30624
C     15.94749    7.95896   10.85729
H     16.36589    7.01475   11.24609
H     16.68128    8.35824   10.13442
C     15.74119    8.85942   12.05834
C     14.60783    6.38628    9.59901
H     13.82123    6.35574    8.82055
H     15.53693    6.11374    9.06688
C     14.20869    5.33804   10.58842
H     12.26429    9.42637    8.47877
H     14.35679    4.26787   10.32285
H     11.08521    8.52169   10.28081
N     16.75601    9.56165   12.52126
H     17.67125    9.55138   12.08034
H     16.64305   10.10700   13.37559
N     14.88900    8.71248    8.03210
H     14.34352    8.30177    7.28016
H     15.36110    9.55193    7.71211
