21

O     -2.92828    1.68854    1.87135
Fe    -2.90162    1.64946    0.15251
H     -3.80995    4.22785   -0.64994
N     -2.52898    1.47065   -1.97825
H     -1.63122    2.00018   -2.05937
H     -2.33930    0.54330   -2.36908
N     -0.73667    2.07837    0.17132
H     -0.49065    2.49057    1.08185
H     -0.24551    1.17860    0.13343
N     -4.20062   -0.08737    0.03072
H     -4.42508   -0.67537    0.83981
H     -3.35598    4.21910    0.82529
H     -4.25683   -0.66734   -0.81055
H     -3.18482    1.90976   -2.63008
O     -3.21009    3.78474   -0.03039
N     -0.33356    2.84610   -0.94111
H     -0.70339    3.79108   -0.82179
H      0.68750    2.91996   -0.99790
N     -5.04390    1.05618   -0.07388
H     -5.58309    1.18613    0.78597
H     -5.70173    0.98975   -0.85684
