35

O      7.16931   22.53790    6.55081
Fe     6.24174   22.05115    5.23588
N      5.86957   20.05736    5.68206
C      5.86794   19.14395    4.51746
C      4.70666   19.34949    3.55672
C      4.11970   21.80293    3.53722
C      4.55967   23.25585    3.34664
N      5.14497   23.72297    4.61779
C      5.99420   20.94944    1.87936
C      7.25106   21.46773    2.45849
N      7.47753   21.88826    3.65537
H      3.02724   21.73369    3.41102
H      4.20345   21.56735    4.62397
H      3.79412   19.44638    4.17564
H      5.71613   21.80589    1.22201
H      5.32981   23.35877    2.57033
H      3.71983   23.90121    3.04254
H      5.82599   18.10883    4.89661
H      6.83433   19.24880    4.00232
C      4.73728   20.64733    2.71349
H      3.99914   20.45779    1.91861
H      6.62132   19.79138    6.32795
H      5.00649   19.91987    6.22011
H      8.43415   22.22870    3.79638
H      5.70590   24.57341    4.50392
H      4.40688   23.97141    5.28558
H      8.08119   21.52458    1.73148
C      6.35505   19.83780    0.88308
H      7.03898   20.21525    0.10784
H      6.84064   18.98807    1.37917
H      5.44823   19.47637    0.38107
C      4.50391   18.07098    2.74944
H      5.42313   17.71858    2.26500
H      4.15323   17.26327    3.41005
H      3.74087   18.21372    1.97086
