22

O     -3.37048    1.23327    1.70600
Fe    -3.04551    1.74716    0.10088
O     -3.90529    3.64759    0.41510
H     -3.85556    4.48413   -0.07154
N     -2.47657    2.44918   -1.89167
H     -1.89757    3.29141   -1.79947
H     -1.84692    1.77338   -2.33595
O     -1.07237    0.97832    0.22795
H     -0.82369    0.53212    1.05275
H     -0.24749    1.14590   -0.25277
N     -4.39925    0.31692   -0.64090
H     -4.92970   -0.00001    0.17694
H     -5.08636    0.74138   -1.27201
H     -4.34137    3.84368    1.25901
C     -3.57326    2.73957   -2.83515
H     -4.31683    3.39722   -2.36174
H     -3.20857    3.22585   -3.75456
H     -4.06931    1.80287   -3.12606
C     -3.74673   -0.82959   -1.28805
H     -3.21010   -0.49960   -2.18901
H     -3.03232   -1.28744   -0.58877
H     -4.48616   -1.59314   -1.58385
