19

O      0.49221   -0.22985   -2.00533
O     -0.56786   -1.96651    0.00776
O      0.44256    2.12670   -0.35633
P      2.43864   -0.46330    0.20347
N     -2.18118    0.29566   -0.80069
O     -0.46494    0.37828    1.72409
H     -0.80678   -2.33638    0.87056
H     -0.30029   -2.70811   -0.55576
H      0.06920    2.76993    0.26454
H      0.62171    2.60445   -1.18026
H      3.35657    0.38275   -0.46734
H      2.88191   -1.73960   -0.22568
H      0.09494    0.50613    2.50305
H     -1.38475    0.48159    2.01855
Fe     0.03924    0.05233   -0.36664
H      2.95298   -0.42983    1.52699
H     -2.43762   -0.46647   -1.44697
Cl    -2.49317    1.74328   -1.71031
Cl    -3.31037    0.08736    0.51766
