25

O     12.44970    7.50259   12.47265
Fe    13.81548    7.75086   11.41282
O     15.35951    8.23075    9.80360
O     12.67764    9.13115   10.27816
N     15.25058    8.23189   12.75462
N     13.92108    5.92353   10.65936
C     16.49971    7.83871   12.76744
C     13.18439    4.85222   10.88011
H     13.42505    3.91103   10.36057
H     14.93447    8.65716   13.62985
H     14.67677    5.74349    9.99905
H     11.74616    9.03634   10.52877
H     16.01130    8.94254    9.87331
H     15.11307    8.20896    8.86671
H     16.88556    7.33263   11.87097
C     12.94115   10.49802    9.94212
H     13.97945   10.55175    9.59106
H     12.27127   10.81857    9.12740
H     12.81253   11.15654   10.81839
N     12.15559    4.82454   11.69608
H     11.91388    5.68397   12.20419
H     11.62311    3.97152   11.83483
N     17.37383    7.98249   13.74937
H     17.13955    8.43234   14.63132
H     18.32464    7.63785   13.65005
