16

O     -3.33359    1.32802    1.91022
Fe    -2.91085    1.66636    0.30093
O     -3.77472    3.55480    0.24468
H     -4.10592    4.02414   -0.53805
N     -2.39671    1.98808   -1.84387
H     -1.78210    2.78913   -2.04402
H     -1.94784    1.17761   -2.29192
O     -0.85869    1.51690    0.66263
H     -0.54965    1.26968    1.54848
H     -0.08002    1.51643    0.08577
N     -4.01625   -0.02244   -0.35525
H     -4.52902   -0.44775    0.42853
H     -4.22651    3.93097    1.01672
H     -4.69144    0.16021   -1.11095
Br    -3.95620    2.30224   -2.87215
Br    -2.81879   -1.32303   -0.99618
