27

O     12.60656    7.74518   12.98918
Fe    13.61371    7.54096   11.62162
O     14.81315    7.20576    9.76828
O     12.72345    8.92556   10.43900
O     15.28047    8.25616   12.46538
O     13.34654    5.46797   11.59968
H     15.19234    8.52421   13.39674
H     12.90808    5.19297   12.41988
H     11.82465    9.12908   10.75025
H     14.43884    7.37569    8.89183
H     15.52178    6.56114    9.62904
C     13.35740   10.32838   10.08167
H     14.20362   10.00543    9.45973
H     13.69355   10.71724   11.05456
C     16.80853    8.24470   12.18887
H     17.05535    7.17339   12.13469
H     16.86526    8.72298   11.20083
C     12.94891    4.58689   10.53718
H     13.23024    3.55203   10.79140
H     11.86242    4.65349   10.35775
H     13.49268    4.89850    9.63700
N     12.48645   11.15259    9.45506
H     11.91388   11.81047    9.97093
H     12.30784   11.07918    8.46004
N     17.48054    8.90023   13.17514
H     17.73577    9.87568   13.07326
H     17.95982    8.38777   13.90638
