53

O      6.71293   22.79480    6.76820
Fe     6.15972   21.94424    5.37684
N      5.94159   19.82214    6.02281
C      6.05035   19.12640    4.73149
C      5.01111   19.43695    3.65262
C      3.76939   21.70348    3.80272
C      3.74936   23.17194    3.40967
P      5.12396   23.98866    4.32009
C      5.99138   21.51224    2.33671
C      7.41719   21.22848    2.75141
N      7.83216   21.87022    4.01330
C      9.03988   21.23401    4.54835
C      8.15221   23.28559    3.76141
H      5.29442   18.76122    2.82851
H      2.77254   21.27021    3.60796
H      4.02722   19.05351    3.97340
H      5.85841   22.60713    2.28722
H      5.95869   21.20985    1.27804
H      8.08870   21.58499    1.95011
H      7.59944   20.14919    2.82650
H      9.13505   23.35991    3.26450
H      7.40001   23.71262    3.08721
H      8.17933   23.83693    4.71149
H      9.88359   21.37349    3.85048
H      9.29988   21.69342    5.51194
H      8.88970   20.15488    4.67592
H      3.88067   23.30037    2.32635
H      2.78986   23.64034    3.68461
C      4.37475   24.90269    5.69871
H      5.15829   25.54296    6.13415
H      3.53853   25.53143    5.35431
H      4.03533   24.22775    6.49611
C      5.63125   25.38765    3.20264
H      6.47088   25.88715    3.71354
H      4.77652   26.09360    3.23842
H      6.01060   18.03459    4.91075
H      7.06246   19.32165    4.36226
C      4.78170   19.34823    6.78348
H      3.90510   19.18808    6.13758
H      4.99919   18.36341    7.23230
H      4.53786   20.05379    7.59108
C      7.12167   19.59152    6.86496
H      7.29277   18.51067    7.01459
H      8.01452   20.03022    6.41270
H      6.95933   20.06618    7.84101
C      4.77794   20.82422    3.01536
H      4.15252   20.56437    2.14669
N      4.02554   21.67534    5.24440
H      3.42590   22.34483    5.73038
H      3.79308   20.76615    5.63890
N      6.00252   24.94283    1.89722
H      6.75947   25.49674    1.50213
H      5.22607   24.97550    1.24090
