20

O      0.69079    0.22181   -1.98306
O     -0.18641   -2.14702   -0.48488
O      0.46722    2.08306    0.00679
N      2.30218   -0.42365    0.14811
N     -1.95607    0.29497   -0.74403
H     -0.99516   -2.56573   -0.15155
H      0.10755   -2.68335   -1.23623
H      0.33132    2.68843    0.75003
H      0.77436    2.62224   -0.73773
H      2.77193   -0.69977   -0.72288
H     -2.13206    0.15226   -1.74634
Fe     0.19809   -0.04263   -0.35012
H      2.76212    0.44781    0.43999
H     -2.23456    1.26656   -0.55531
N     -0.23403   -0.22967    1.78822
H     -1.23049   -0.22922    2.02807
H      0.12905   -1.13095    2.11627
H      0.20312    0.45961    2.40620
Br    -3.22497   -0.78018    0.14748
Br     2.77757   -1.71618    1.43024
