20

O      0.65664   -0.31433   -2.00167
O      0.06445   -2.14840    0.12702
O      0.81134    2.07965   -0.46034
N      2.36301   -0.38677    0.28002
N     -1.89065   -0.07695   -0.75252
H     -0.77110   -2.47884    0.49613
H      0.29561   -2.76671   -0.58405
H      0.24343    2.79580   -0.13796
H      1.11967    2.37357   -1.33172
H      2.90726   -0.73578   -0.51481
H      2.46517   -1.08126    1.02544
Fe     0.32630   -0.03739   -0.33508
H      2.83866    0.46356    0.59626
H     -2.01306   -0.55303   -1.65833
N     -0.22222    0.41948    1.74407
H     -1.15351    0.82998    1.86377
H     -0.22628   -0.41164    2.34293
H      0.42252    1.07251    2.20008
Br    -2.51195    1.68111   -1.10317
Br    -3.03278   -1.05794    0.41269
