24

O     11.82017    7.05192   12.94064
Fe    13.03840    7.34033   11.81322
N     14.62749    7.69346   10.23652
N     12.08037    8.50596   10.42016
F     14.56812    8.44389   12.86313
N     13.66550    5.45994   11.41470
C     14.22713    8.83293    9.40916
H     14.73628    9.75631    9.74046
H     14.53105    8.71995    8.35158
C     12.76539    9.08799    9.50763
C     15.88419    7.88543   10.97661
H     16.18235    6.91260   11.39685
H     16.70342    8.22799   10.31930
C     15.72750    8.85787   12.12250
C     14.66613    6.44671    9.46773
H     13.89881    6.47337    8.67405
H     15.63523    6.29656    8.96041
C     14.32804    5.26411   10.32831
H     12.30817    9.80131    8.79991
H     13.40489    4.63171   11.95874
H     11.08237    8.73937   10.45660
H     15.51298    9.89659   11.82601
Br    17.22699    8.84906   13.25073
Br    14.82706    3.61430    9.71401
