21

O     -3.02783    1.05471    1.74836
Fe    -2.81768    1.55217    0.10360
H     -4.03662    4.17762   -0.09635
N     -2.81257    2.18563   -2.02675
H     -2.28876    3.05517   -2.17420
H     -2.36983    1.51405   -2.66205
N     -0.67849    1.78130    0.19351
H     -0.32595    1.22200    0.97614
H     -0.14700    1.47871   -0.62782
N     -4.03886   -0.08878   -0.45251
H     -4.36616   -0.05850   -1.42234
H     -0.38055    2.74337    0.38818
H     -4.10224    3.61971    1.34464
H     -3.73441    2.36992   -2.43715
O     -3.70057    3.47137    0.47509
N     -2.69140   -0.64923   -0.46296
H     -2.54170   -1.31261   -1.23266
H     -2.55220   -1.13719    0.42648
N     -5.00884   -0.59575    0.35289
H     -5.23028   -1.58051    0.18388
H     -4.79920   -0.39139    1.32931
