23

O     -2.68843    1.85914    1.37367
Fe    -3.07319    1.30039   -0.15825
H     -5.77216    2.14487   -0.96839
N     -2.42083    2.84544   -1.45777
H     -1.39908    2.77534   -1.46151
N     -1.19725    0.23362   -0.52429
H     -0.40834    0.79265   -0.18214
H     -1.14407   -0.63572    0.01642
N     -4.04538   -0.62026    0.06270
H     -3.72243   -1.09883    0.91075
H     -5.05401   -0.49405    0.19701
H     -0.96284   -0.02957   -1.48731
H     -5.43389    2.65362    0.45386
H     -3.95004   -1.30375   -0.69605
O     -5.11603    2.07812   -0.25865
C     -2.88932    2.59836   -2.82778
H     -3.98568    2.67658   -2.86381
H     -2.47485    3.34094   -3.53168
H     -2.58323    1.59483   -3.16360
C     -2.75191    4.19138   -0.96430
H     -2.34478    4.31831    0.04812
H     -2.33303    4.96377   -1.63094
H     -3.84294    4.30909   -0.93441
