23

O     -2.54294    1.68461    1.71422
Fe    -2.69023    1.65102   -0.00555
H     -3.82986    4.23525   -0.63742
N     -2.86785    1.83151   -2.19141
H     -2.40617    2.69608   -2.49264
H     -2.32893    1.09814   -2.66344
N     -0.57821    1.58307   -0.15526
H     -0.26471    0.98473    0.61622
H     -0.22129    1.14558   -1.01048
N     -3.73823   -0.22860   -0.04510
H     -3.48288   -0.77231    0.78600
H     -4.75572   -0.10908    0.01440
H     -3.52792    4.08213    0.88029
H     -3.58111   -0.84480   -0.84898
O     -3.45446    3.63516    0.02339
C     -4.23813    1.81632   -2.73627
H     -4.84959    2.58857   -2.24668
H     -4.25550    1.99528   -3.82390
H     -4.70482    0.83937   -2.54531
C      0.01210    2.92213    0.00729
H      1.11410    2.87739   -0.00329
H     -0.31861    3.58051   -0.80950
H     -0.31647    3.34359    0.96753
