23

O      0.38495    0.06423   -2.11835
O     -0.41734   -2.02527   -0.22379
O      0.11186    2.21902   -0.32385
P      2.28322   -0.11553    0.11243
N     -2.25343    0.38727   -0.51897
O     -0.54924    0.33139    1.83062
H     -0.56414   -2.55184    0.57476
H     -0.13914   -2.64572   -0.91391
H      0.28669    2.53158    0.57969
H      3.03361    1.00674   -0.32017
H      2.94068   -1.17025   -0.56827
H     -2.54734    1.21930   -1.03682
H     -2.77919   -0.40137   -0.90441
H      0.06421    0.21333    2.57818
Fe    -0.16178    0.09639   -0.47870
H      2.80613   -0.29209    1.42229
H     -2.54759    0.50970    0.47162
N     -1.86393    0.51917    2.28555
H     -1.89076    1.37032    2.85892
H     -2.11567   -0.26791    2.89447
N      1.13814    2.81803   -1.11370
H      0.72922    3.70163   -1.44602
H      1.16923    2.19936   -1.93256
