52

O      6.73894   22.79891    6.52764
Fe     5.73637   22.05902    5.46466
N      5.36125   20.18344    6.36589
C      5.68176   19.07296    5.13183
C      5.24169   19.70626    3.80167
N      5.40331   21.17335    3.59127
C      4.08303   21.78128    3.26353
C      4.05341   23.29673    3.33392
N      4.51882   23.70327    4.84800
C      6.29134   21.44865    2.42857
C      7.77042   21.17111    2.55143
N      8.51693   22.18277    3.30024
C      9.51897   21.61765    4.15649
C      8.95592   23.32286    2.51080
H      5.80758   19.17113    3.02717
H      3.79760   21.50066    2.23553
H      3.32351   21.37097    3.93632
H      4.18828   19.45492    3.63544
H      6.16184   22.49736    2.15286
H      5.90128   20.85348    1.58446
H      8.16404   21.08200    1.52455
H      7.95284   20.18794    3.00290
F     10.03327   23.04582    1.78611
F      7.96564   23.65223    1.66958
F      9.21062   24.35943    3.29024
F     10.36135   20.80972    3.51838
F     10.19830   22.54498    4.79463
F      8.87520   20.85471    5.07920
H      4.87661   23.73248    2.75417
C      3.37051   23.88982    5.76556
F      3.80098   23.84267    7.01312
F      2.74582   25.02451    5.54561
F      2.52924   22.87426    5.56078
C      5.37365   24.91278    4.76152
F      5.61559   25.41785    5.94580
F      6.51634   24.51429    4.19497
F      4.81760   25.82841    3.98516
H      4.97190   18.27494    5.39377
C      3.94167   20.04587    6.78107
F      3.19194   20.05455    5.67126
F      3.72046   18.91990    7.41854
F      3.58771   21.07335    7.52905
C      6.26746   19.92818    7.53950
F      6.23469   18.64571    7.86921
F      7.49878   20.25004    7.19608
F      5.88633   20.66056    8.56179
N      2.86215   23.81728    2.90762
H      2.82039   24.80007    2.66232
H      1.99097   23.42540    3.24718
N      6.94557   18.56230    5.13040
H      7.73108   19.15663    4.89731
H      7.16854   17.84527    5.81269
