27

O     12.01849    7.33343   13.00071
Fe    13.25179    7.53271   11.85674
N     14.76257    7.69897   10.14278
N     12.17899    8.38251   10.30603
O     14.69808    8.71530   12.62568
N     13.72379    5.56855   11.42332
C     14.31004    8.84912    9.31505
H     14.70747    8.75011    8.28858
C     12.80532    8.85745    9.29442
C     16.03577    7.93208   10.80518
H     16.42280    6.95923   11.15419
H     16.79518    8.37353   10.13758
C     15.81382    8.76766   12.04461
C     14.71210    6.43396    9.42156
H     13.97110    6.49667    8.60174
H     15.66793    6.18469    8.92270
C     14.26705    5.31216   10.29404
H     12.29504    9.37849    8.46715
H     14.39275    4.28032    9.92267
H     13.40116    4.75964   11.96382
H     11.16172    8.50900   10.31605
N     14.74876   10.08712    9.85797
H     14.10712   10.53323   10.50907
H     15.10678   10.75364    9.17926
N     16.81698    9.46352   12.54223
H     16.69710    9.96195   13.42226
H     17.71724    9.52374   12.07736
