22

O      0.48994   -0.07436   -2.17192
O     -0.13176   -2.17943   -0.07121
O      0.10773    2.16127   -0.26153
P      2.32864   -0.29709    0.20302
O     -2.08315   -0.05448   -0.57984
O     -0.64106    0.01076    1.68341
H     -0.22828   -2.85443   -0.76923
H      0.53141    2.57598    0.50515
H      0.36283    2.70154   -1.02613
H      3.23875    0.74898   -0.09666
H      2.97102   -1.39161   -0.42683
H     -2.65896    0.33093   -1.25497
H     -2.36419    0.27619    0.37521
H     -0.79213   -1.01458    1.66698
Fe    -0.04292    0.04195   -0.54247
H      2.63709   -0.54025    1.56692
N     -0.93253   -2.47185    1.03290
H     -1.88513   -2.68965    0.71559
H     -0.54582   -3.29455    1.51254
N     -1.94509    0.54948    1.82075
H     -2.37163    0.13016    2.65796
H     -1.79979    1.53586    2.06131
