25

O     12.41217    7.44574   12.39322
Fe    13.80733    7.73029   11.38565
O     15.61992    8.22638   10.08784
O     12.89373    9.22231   10.35914
N     15.15904    8.12149   12.96728
N     13.97660    5.91811   10.60300
C     16.30298    7.59109   13.17340
C     13.21682    4.84824   10.74080
H     13.49683    3.91364   10.22918
H     16.86570    7.74060   14.11100
H     14.81306    8.67723   13.75837
H     14.78844    5.73572   10.01399
H     11.95491    9.34863   10.58259
H     16.25372    8.92053   10.31925
H     15.66665    8.15946    9.12320
H     16.75490    6.96035   12.39251
C     13.09355   10.04766    9.09794
H     13.22098    9.30829    8.29139
H     14.03552   10.58239    9.29268
N     12.01003   10.86762    8.90270
H     12.06293   11.84369    9.17166
H     11.35583   10.66445    8.15573
N     12.11961    4.81406   11.46174
H     11.84204    5.66212   11.97016
H     11.57405    3.96148   11.53938
