30

O     11.81026    7.40338   12.97588
Fe    13.07460    7.46100   11.85836
N     14.65242    7.70597   10.25260
N     12.15908    8.59937   10.43130
F     14.80114    7.92592   13.03345
N     13.50270    5.50797   11.42630
C     14.31115    8.85885    9.38854
H     14.75777    9.74881    9.86683
C     12.84501    9.11888    9.48162
C     15.92853    7.86717   10.97118
H     16.29331    6.86225   11.22976
H     16.70006    8.33243   10.33221
C     15.79776    8.64437   12.26463
C     14.61604    6.43644    9.51802
H     13.88445    6.50024    8.69185
H     15.57854    6.20316    9.02951
C     14.15782    5.29216   10.34865
H     12.38663    9.80334    8.74791
H     14.35527    4.27084    9.97886
H     16.73298    8.52161   12.83546
H     13.16751    4.68249   11.93319
H     11.16673    8.85450   10.47232
C     15.37425   10.08168   12.23737
H     15.37904   10.49244   13.25805
H     16.08426   10.67380   11.63882
H     14.36027   10.21307   11.82806
C     14.84482    8.82657    7.96508
H     14.68668    9.80846    7.49359
H     15.92734    8.63469    7.96551
H     14.34976    8.07366    7.33575
