22

O      0.49204   -0.80885   -2.41622
N      2.69929   -0.93576   -0.53810
H      2.91496   -1.44887   -1.39722
H      2.94099   -1.56720    0.22926
Fe     0.54342   -0.36507   -0.74278
H      3.36440   -0.15951   -0.49037
P      0.63417    1.92452   -1.15103
H      1.93216    2.49899   -1.21375
H      0.07984    2.36749   -2.37633
H      0.01337    2.80610   -0.22822
P     -0.47300   -2.37565   -0.41526
H     -1.23297   -2.82581   -1.52828
P     -2.14915    0.18797   -0.87063
H     -2.41301    1.24400   -1.78549
H     -3.01882   -0.78704   -1.42718
H     -2.94044    0.61694    0.22852
P      0.55292   -0.00718    1.54715
H      0.86154   -1.13455    2.35216
H      1.47113    0.94282    2.07120
H     -0.65060    0.42826    2.15467
Br    -1.89696   -2.56460    1.21521
Br     0.98183   -3.96141   -0.19900
