31

O      6.68848   22.65363    6.52397
Fe     6.58507   21.93285    5.00984
N      6.02604   19.99218    5.46557
C      5.38695   19.11757    4.77680
C      4.72084   19.33340    3.47157
C      4.16822   21.79634    3.77904
C      4.47826   23.22063    3.34978
N      5.83870   23.54602    3.81547
C      6.00085   20.96530    1.99089
C      7.41446   20.91890    2.43843
N      7.87744   21.28144    3.57867
H      5.13588   18.57831    2.77610
H      4.73705   21.66822    4.76421
H      3.68396   18.96866    3.60442
H      5.89172   21.92015    1.44086
H      5.95411   20.23629    1.16453
H      4.37404   23.31975    2.25936
H      3.75995   23.91596    3.80838
C      4.67812   20.71144    2.77122
H      8.89752   21.21574    3.65888
H      6.46501   23.77442    3.04060
H      5.83084   24.37584    4.41439
H      8.12470   20.59856    1.65438
H      6.37461   19.63964    6.36338
H      5.28335   18.09537    5.18477
N      3.71505   20.77187    1.70413
H      2.76203   20.77410    2.06328
H      3.82997   20.03309    1.01394
N      2.80116   21.59341    4.05720
H      2.32090   22.37297    4.49933
H      2.55969   20.71910    4.51466
