19

O      0.47091   -0.15330   -1.98281
O     -0.55510   -2.04847   -0.10208
O      0.42858    2.06720   -0.14665
P      2.44977   -0.53668    0.18348
N     -2.18797    0.26968   -0.70362
O     -0.43980    0.15053    1.79503
H     -0.77478   -2.48868    0.73237
H     -0.29386   -2.74015   -0.72858
H      0.04766    2.65433    0.52329
H      0.59819    2.61162   -0.93030
H      3.35159    0.36267   -0.43804
H      2.89962   -1.77583   -0.33795
H     -2.45263   -0.44191   -1.40216
H      0.12894    0.23095    2.57389
H     -1.35685    0.22077    2.10744
Fe     0.03956   -0.00344   -0.32160
H      2.98016   -0.58922    1.49998
Cl    -3.29952   -0.03962    0.60995
Cl    -2.51421    1.78092   -1.49761
