19

O      0.48920   -0.05961   -2.00034
O     -0.24560   -2.17128   -0.18239
O      0.09925    2.05844   -0.10497
P      2.44972   -0.33445    0.19218
N     -2.16636    0.36603   -0.76223
O     -0.49786   -0.08411    1.76687
H     -0.84507   -2.60483    0.44329
H     -0.25136   -2.71105   -0.98737
H      0.02333    2.53529    0.73463
H      0.57699    2.63653   -0.71847
H      3.28433    0.68560   -0.33009
H      3.02302   -1.48334   -0.40767
H     -2.14680    1.14918   -1.43163
H      0.00806   -0.37520    2.53858
H     -1.39238    0.13414    2.07965
Fe    -0.00234   -0.06861   -0.34791
H      2.95562   -0.44021    1.51525
Br    -3.27575    1.05100    0.62630
Br    -2.97877   -1.03026   -1.75353
