18

O     -2.21286    1.34211    1.08015
Fe    -2.78209    1.40523   -0.43766
P     -3.91839    3.39065    0.23486
H     -3.96098    4.44593   -0.71324
H     -5.27852    3.22683    0.58713
N     -3.29944    1.64979   -2.44743
H     -2.75354    2.40124   -2.88972
H     -3.11672    0.82168   -3.03140
P     -0.42681    1.43464   -0.94195
H      0.18264    2.55493   -0.32309
H      0.23528    0.34326   -0.32632
N     -3.64061   -0.47449   -0.17533
H     -3.26649   -0.88762    0.68993
H      0.12791    1.45433   -2.25060
H     -3.33914    3.98748    1.37962
H     -3.57265   -1.18437   -0.91714
Br    -5.10484    2.11354   -2.79978
Br    -5.46467   -0.15800    0.12638
