29

O     11.82223    7.31995   12.99884
Fe    13.03644    7.47171   11.83317
N     14.54625    7.67855   10.13229
N     11.98425    8.29301   10.32601
O     14.60698    8.64544   12.67146
N     13.66218    5.53157   11.51055
C     14.08400    8.81599    9.30654
H     14.38570    9.72983    9.85531
C     12.57082    8.88734    9.34157
C     15.83639    7.94090   10.75676
H     16.37290    6.99553   10.96883
H     16.52973    8.51644   10.11463
C     15.68339    8.60736   12.08645
C     14.49948    6.39297    9.43863
H     13.68526    6.40425    8.69091
H     15.41788    6.17550    8.86429
C     14.18040    5.27445   10.36887
H     14.36835    4.24158   10.02769
H     16.58549    9.05111   12.56330
H     13.42115    4.72104   12.09036
H     10.96717    8.40393   10.37073
C     14.70160    8.88065    7.92214
H     14.48692    9.84860    7.44911
H     15.79602    8.79302    7.98328
H     14.32595    8.08922    7.25834
C     11.85552    9.67340    8.31952
H     12.28966   10.68590    8.24887
H     11.99915    9.21470    7.32586
H     10.78025    9.75209    8.53036
