35

O      7.11717   22.48123    6.56623
Fe     6.17358   22.03003    5.24857
N      5.54113   20.14070    5.78580
C      5.61714   19.15721    4.66837
C      4.56614   19.43636    3.60559
C      4.05622   21.93167    3.51237
C      4.62059   23.33756    3.29944
N      5.25522   23.77599    4.55726
C      5.91860   20.87446    1.92474
C      7.19432   21.35405    2.49467
N      7.42872   21.77427    3.68925
H      4.58769   18.57256    2.92718
H      2.97332   21.94365    3.31072
H      4.05450   21.73406    4.60769
H      3.56746   19.39021    4.07496
H      5.71115   21.66093    1.16492
H      5.38616   23.36118    2.51228
H      3.83579   24.04843    2.99468
H      6.62371   19.27522    4.23448
C      4.63654   20.71052    2.75814
H      3.90090   20.51914    1.96028
H      6.17680   19.84472    6.53533
H      4.60689   20.09082    6.20850
H      8.39970   22.06601    3.84088
H      5.90266   24.55857    4.41960
H      4.54841   24.12135    5.21575
H      8.03140   21.35767    1.77341
C      5.48590   17.74922    5.21929
H      4.48597   17.58608    5.65332
H      5.62916   17.01163    4.41547
H      6.24397   17.54833    5.99298
C      6.21662   19.61599    1.09258
H      6.97705   19.81678    0.32315
H      6.57727   18.78897    1.72046
H      5.30102   19.29026    0.57789
