25

O     12.40487    7.50224   12.58923
Fe    13.71305    7.87503   11.49761
O     15.41719    8.48401   10.10360
O     12.75888    9.49632   10.73911
N     15.21349    8.04752   12.98121
N     13.75257    6.16704   10.49434
C     16.35442    7.47353   13.01638
C     12.97114    5.10679   10.57184
H     13.17375    4.23459    9.93008
H     17.00407    7.49941   13.90822
H     14.95806    8.51243   13.86041
H     14.50401    6.03815    9.81757
H     11.84860    9.61513   11.06248
H     16.09048    9.13301   10.35377
H     15.37382    8.53152    9.13766
H     16.71408    6.93091   12.12864
C     12.87115   10.46356    9.57138
H     13.84197   10.95331    9.74112
H     12.90493    9.82423    8.67497
N     11.79946   11.32141    9.57401
H     11.07536   11.22135    8.87196
H     11.90483   12.25698    9.95010
N     11.93934    5.01180   11.37886
H     11.73609    5.79807   12.00741
H     11.37361    4.16924   11.40351
