27

O      0.44319    0.62651   -2.07616
P      2.56540   -0.47324   -0.49533
O      0.10812   -0.05143    1.59362
H      2.70467   -1.47054   -1.49075
H      3.41804   -0.99574    0.51835
H     -0.56209    0.24588    2.22559
H      0.90160   -0.24768    2.11315
Fe     0.17472    0.38816   -0.48439
H      3.41370    0.52321   -1.04268
P      0.48595    2.71139   -0.26215
H      1.86666    2.92557   -0.00593
H     -0.09713    3.36485    0.85607
P     -0.90448   -1.58456   -1.15905
H     -1.74626   -1.34825   -2.27195
H      0.06618   -2.45083   -1.71790
P     -2.35686    1.11895   -0.16089
H     -2.68940    2.43846   -0.56701
H     -3.36144    0.42687   -0.88969
H     -2.99028    1.13153    1.11421
C     -1.83920   -2.55677    0.04014
H     -2.72116   -1.99372    0.38123
H     -2.17151   -3.50240   -0.42020
H     -1.19349   -2.77574    0.90431
C      0.10413    3.68990   -1.72304
H      0.43139    4.73129   -1.57264
H      0.63560    3.23970   -2.57573
H     -0.97689    3.66606   -1.92342
