52

O      6.36967   22.94757    6.90322
Fe     5.95294   22.18331    5.46129
N      5.55984   20.19900    6.34292
C      5.85351   19.18883    5.13528
C      5.25195   19.77084    3.85185
N      5.43616   21.22524    3.59907
C      4.10919   21.83166    3.33322
C      4.11042   23.34581    3.34409
N      4.58338   23.78250    4.83677
C      6.25261   21.43769    2.37128
C      7.67880   20.91053    2.32910
N      8.69687   21.88687    2.66637
C      9.19644   21.88462    3.94455
C      9.04778   22.94099    1.73300
H      5.70118   19.18969    3.03509
H      3.74520   21.51119    2.34241
H      3.39602   21.46375    4.07812
H      4.18077   19.55047    3.82322
H      6.27746   22.51178    2.15635
H      5.69206   20.97051    1.54297
H      7.87651   20.56240    1.30640
H      7.81847   20.02007    2.95602
F     10.34965   23.00265    1.55014
F      8.43849   22.67782    0.58238
F      8.61678   24.12861    2.17530
F      9.69551   20.71600    4.33394
F     10.01769   22.85377    4.21682
F      8.07995   22.05035    4.89415
H      4.94218   23.73772    2.74536
C      3.42880   24.02387    5.73731
F      3.81641   24.06928    6.99094
F      2.81306   25.14783    5.42090
F      2.58655   23.00022    5.58073
C      5.47239   24.95177    4.72252
F      5.68312   25.53436    5.87550
F      6.64068   24.45873    4.25075
F      5.01726   25.83411    3.85086
H      5.27125   18.28823    5.38676
C      4.16685   20.08713    6.85590
F      3.33506   19.99591    5.81683
F      4.01417   19.01913    7.60682
F      3.86003   21.17779    7.53456
C      6.52546   19.97275    7.46823
F      6.64320   18.68058    7.72692
F      7.71143   20.45169    7.10384
F      6.12476   20.60009    8.54988
N      7.18449   18.81746    5.00164
H      7.87032   19.55638    4.92281
H      7.50581   18.09725    5.64029
N      2.93122   23.87709    2.88885
H      2.91111   24.86194    2.64978
H      2.05659   23.52225    3.25936
