25

O      0.63296   -1.56401   -1.54777
P      2.43532    0.43638   -1.01698
O      1.32173   -1.03963    1.37546
H      3.05132    1.56264   -0.41946
H      2.24455   -1.13271    1.03233
H      1.06726   -1.92679    1.66858
Fe     0.34251   -0.16166   -0.52801
H      2.68703    0.66468   -2.40087
P      0.31370    1.81918    0.70487
H      0.68787    2.96353   -0.04782
H     -0.99003    2.23591    1.12008
P     -1.66231   -0.83630    0.39536
H     -2.79379   -0.87810   -0.46010
H     -1.66370   -2.16949    0.88302
H     -2.21555   -0.15317    1.50951
P     -0.81334    1.16006   -2.23747
H     -0.13316    1.81589   -3.30040
H     -1.76363    0.43053   -3.00009
H     -1.65804    2.23829   -1.84905
N      3.39325   -0.83106   -0.42986
H      3.21316   -1.71183   -0.91824
H      4.39850   -0.65508   -0.35628
N      1.41379    1.74451    1.94185
H      1.51003    2.53223    2.58300
H      1.46643    0.82817    2.38893
