30

O     11.86971    7.07345   12.97068
Fe    13.07915    7.33901   11.82014
N     14.63959    7.67115   10.20906
N     12.02314    8.23618   10.32126
F     14.58169    8.48069   12.86289
N     13.65157    5.44266   11.40756
C     14.17037    8.80866    9.38855
H     14.43039    9.72703    9.95120
C     12.67338    8.83953    9.39791
C     15.87814    7.94323   10.95366
H     16.21633    6.99131   11.38994
H     16.69237    8.30632   10.30205
C     15.67079    8.93370   12.06521
C     14.70934    6.39631    9.45039
H     13.93446    6.45937    8.66110
C     14.25905    5.25078   10.29813
H     12.15857    9.43606    8.62586
H     14.45267    4.23341    9.91785
H     16.55262    8.98696   12.72253
H     13.34696    4.60801   11.91895
H     11.00297    8.33727   10.30647
H     15.40524    9.95061   11.73508
C     14.76482    8.97609    8.00113
H     14.37988    9.90533    7.55371
H     15.85742    9.07306    8.05126
H     14.50446    8.14915    7.32557
C     16.03656    6.06487    8.77816
H     16.38774    6.89346    8.15432
H     16.81939    5.81317    9.50710
H     15.90082    5.19264    8.12072
