20

O      0.59195   -0.08040   -2.07043
O     -0.25828   -2.10532   -0.09790
O      0.48029    2.09025   -0.22743
N      2.30188   -0.44681    0.19547
N     -1.90932    0.35882   -0.60135
H     -1.14831   -2.34573    0.20742
H     -0.05309   -2.72936   -0.81218
H      0.71903    2.52011    0.61106
H      0.88264    2.61024   -0.94003
H      2.94224   -0.25408   -0.58069
H      2.44956   -1.42985    0.44448
H     -2.11417    1.36334   -0.50727
H     -2.22112    0.09669   -1.54586
Fe     0.27613   -0.02463   -0.38624
H      2.63298    0.10193    0.99502
N     -0.11602    0.08231    1.87928
H     -1.08700    0.30710    2.13626
H      0.07079   -0.82542    2.32576
Cl     0.86753    1.22226    2.74901
Cl    -2.98284   -0.45459    0.49284
