20

O     -0.02865   -0.02659   -2.11398
O     -0.31458   -2.02603   -0.00363
O      0.55629    2.14271   -0.34066
N      2.18776   -0.32710   -0.22741
N     -2.10019    0.44175   -0.22029
H      0.35250   -2.53979    0.48127
H     -0.56040   -2.57638   -0.76416
H      0.36565    2.69783    0.43518
H      0.47216    2.70765   -1.12393
H      2.70435    0.55343   -0.10063
H      2.52756   -0.72023   -1.11412
H     -2.35763    1.15282    0.47106
H     -2.48159    0.75148   -1.11912
Fe     0.01447    0.08202   -0.39977
H     -2.62271   -0.40299    0.03118
N      0.01200    0.19860    1.87872
H     -0.59005   -0.53681    2.27040
H      0.93443    0.03009    2.30300
Br    -0.60759    1.79748    2.67410
Br     2.82071   -1.49215    1.11498
