26

O      0.48485   -0.85555   -2.44345
N      2.71984   -0.90677   -0.56413
H      2.93786   -1.80971   -0.13361
H      3.31121   -0.22487   -0.08261
Fe     0.49913   -0.46687   -0.74136
H      3.07510   -0.97111   -1.52175
P      0.72631    1.84958   -1.05253
H      2.03869    2.33635   -1.29313
H      0.05403    2.39887   -2.17377
H      0.31230    2.75229   -0.03858
P     -0.51147   -2.50838   -0.67354
H      0.56766   -3.43183   -0.74866
H     -1.19035   -2.93584    0.49234
P     -2.07183    0.24949   -0.76818
H     -2.30300    0.16183   -2.16331
H     -2.59874    1.56710   -0.55504
P      0.38070   -0.24502    1.56734
H      1.50497   -0.65860    2.33327
H      0.18486    1.04819    2.12260
H     -0.63646   -0.94508    2.27023
N     -3.16322   -0.91067   -0.18239
H     -3.14387   -1.02506    0.83075
H     -4.13476   -0.80515   -0.48544
N     -1.53676   -2.97163   -1.89295
H     -1.19541   -2.79954   -2.83895
H     -2.50417   -2.68220   -1.74932
