20

O      0.61863   -0.11195   -2.05485
O     -0.22527   -2.11314   -0.09101
O      0.49690    2.09518   -0.24999
N      2.31346   -0.44235    0.20635
N     -1.88441    0.37309   -0.61912
H     -1.10983   -2.36131    0.22522
H     -0.04054   -2.71004   -0.83348
H      0.71942    2.53967    0.58621
H      0.92209    2.59654   -0.96245
H      2.94482   -0.27789   -0.58335
H      2.45167   -1.42039    0.47868
H     -2.07390    1.37875   -0.51398
H     -2.16286    0.13989   -1.58055
Fe     0.28320   -0.02261   -0.37190
H      2.66213    0.12293    0.98659
N     -0.11411    0.06767    1.87287
H     -1.10028    0.23983    2.11177
H      0.10175   -0.83840    2.30779
Br     0.86231    1.32887    2.88741
Br    -3.13074   -0.50432    0.49305
