27

O     13.37894    7.47242   12.86939
Fe    14.21652    7.52598   11.50684
O     15.25330    7.39726    9.82972
O     12.79141    8.70925   10.65892
O     15.45385    9.29645   12.07622
O     13.40000    5.67065   10.85079
H     15.08288    9.82123   12.80409
H     12.76850    5.31030   11.49553
H     12.11291    8.94596   11.31392
H     15.64488    8.13370    9.34144
H     14.84244    6.60205    9.17635
C     12.98546    9.78434    9.72596
H     13.56847    9.38280    8.88768
H     12.00303   10.12195    9.35874
H     13.52436   10.62155   10.19855
C     16.50618    8.47184   12.56103
H     16.82213    8.77185   13.57222
H     17.35628    8.55467   11.86802
C     12.95787    5.38506    9.51942
H     12.51210    4.37465    9.51077
H     12.19967    6.12373    9.20696
N     14.11838    5.50936    8.66627
H     14.69479    4.66221    8.68402
H     13.83719    5.65638    7.69289
N     15.98135    7.10495   12.53863
H     15.77800    6.72791   13.46882
H     16.58554    6.45075   12.03419
