35

O      7.15980   22.50801    6.57003
Fe     6.21461   22.05723    5.25777
N      5.65275   20.10555    5.73696
C      5.66559   19.19821    4.56574
C      4.56357   19.43918    3.55339
C      4.14254   21.90678    3.54079
C      4.66486   23.32048    3.28804
N      5.27454   23.79888    4.54355
C      5.91668   20.85586    1.89204
C      7.15737   21.42375    2.46157
N      7.41646   21.81974    3.66013
H      4.56653   18.56167    2.89017
H      3.04150   21.91640    3.51914
H      4.29344   21.66879    4.61947
H      3.58374   19.39470    4.06052
H      5.70941   21.56133    1.05882
H      5.43837   23.34134    2.50936
H      3.86539   24.00106    2.95452
H      5.57343   18.16095    4.93238
H      6.66080   19.27746    4.10526
C      4.58690   20.70108    2.67552
H      6.34408   19.78762    6.42527
H      4.75104   20.03263    6.22164
H      8.37938   22.15087    3.77914
H      5.90337   24.59523    4.39953
H      4.55246   24.13570    5.18967
H      7.97317   21.49336    1.71962
C      3.48703   20.54506    1.61285
H      3.38344   21.46663    1.01891
H      3.68497   19.71487    0.92240
H      2.51964   20.34142    2.09581
C      6.36624   19.56076    1.18221
H      7.15716   19.76894    0.44626
H      6.75083   18.81468    1.89066
H      5.52637   19.11840    0.63336
