36

O     -2.25227    2.13738    1.48193
Fe    -2.57525    2.27683   -0.18290
N     -3.79808    3.99890   -0.18713
O     -1.87136    1.01074   -1.70684
O     -0.78080    3.33270   -0.51748
O     -4.17543    0.91310   -0.05919
C     -5.00518    3.76073    0.62052
H     -5.62970    4.67017    0.62883
H     -5.58433    2.93291    0.19527
H     -4.70884    3.51943    1.65007
C     -3.05617    5.14402    0.36484
H     -2.17528    5.35331   -0.25299
H     -3.70713    6.03465    0.37753
H     -2.74564    4.91148    1.39222
C     -4.14086    4.22165   -1.59735
H     -4.69283    3.35505   -1.99137
H     -4.78553    5.11236   -1.70344
H     -3.22572    4.39381   -2.18374
H     -0.31472    3.51815    0.31090
H     -4.34477    0.64382    0.85555
C     -4.78928   -0.00288   -0.97144
H     -4.22848   -0.95070   -1.01367
H     -5.82897   -0.19600   -0.66181
H     -4.79721    0.47010   -1.96151
C      0.11080    3.45610   -1.63016
H      0.80092    2.59819   -1.67831
H     -0.49954    3.49507   -2.54126
H      0.68341    4.39370   -1.54582
C     -1.04858   -0.08815   -1.30985
H     -0.06625   -0.02369   -1.80624
H     -0.91761   -0.02832   -0.21993
H     -1.53546   -1.04132   -1.57461
C     -2.11740    1.06837   -3.10979
H     -2.75592    1.94077   -3.30434
H     -1.16651    1.17629   -3.65757
H     -2.63057    0.15148   -3.44413
