48

O      7.44672   23.10655    5.98099
Fe     6.38518   22.16522    4.96265
N      5.97690   20.46805    6.17119
C      5.76299   19.28629    5.30170
C      4.70846   19.52115    4.23498
P      5.08105   21.13865    3.51066
C      3.70316   22.22890    3.10098
C      4.31677   23.61142    3.19886
N      5.06471   23.80855    4.46510
C      6.12442   20.92187    2.02912
C      7.52819   20.66578    2.54313
N      7.91343   21.65252    3.57171
C      9.14321   21.21545    4.24531
C      8.13263   22.97497    2.97010
H      4.74073   18.74073    3.45647
H      3.31153   22.02653    2.09059
H      2.87568   22.08334    3.81299
H      3.68379   19.53775    4.63719
H      6.06893   21.86175    1.45783
H      8.25291   20.68362    1.71058
H      7.57548   19.66265    2.98888
H      8.93208   22.92537    2.21023
H      7.21244   23.32452    2.48629
H      8.42425   23.68022    3.75886
H      9.98100   21.18939    3.52776
H      9.37293   21.91544    5.05843
H      9.00374   20.20487    4.64828
H      5.02903   23.77979    2.37850
H      3.53962   24.39154    3.12145
C      4.19570   23.71552    5.63127
H      4.79690   23.91194    6.52736
H      3.76494   22.71073    5.67675
C      5.76209   25.10431    4.43335
H      6.37674   25.20437    5.33455
H      6.40664   25.15275    3.54953
H      5.02165   25.91884    4.38649
H      5.49184   18.41836    5.92926
H      6.72940   19.04979    4.83589
C      4.78090   20.71662    6.98571
H      3.90009   20.85369    6.34740
H      4.59331   19.85926    7.65517
H      4.93260   21.61253    7.59848
C      7.11457   20.21439    7.07209
H      6.91901   19.31626    7.68218
H      8.02829   20.05974    6.48964
H      7.25868   21.07785    7.73035
Br     5.50693   19.54444    0.85905
Br     2.71435   24.93886    5.64884
