35

O     -2.21475    2.07247    1.73306
Fe    -2.29040    2.42587    0.05216
N     -3.52011    4.13522   -0.03164
O     -1.73592    1.82783   -1.94301
N     -0.22631    2.94891    0.12323
O     -3.81720    0.94468   -0.28079
C     -4.61687    4.01603    0.93868
H     -5.20305    4.95080    0.96110
H     -5.29190    3.20509    0.63202
H     -4.21613    3.81008    1.93724
C     -2.67916    5.33208    0.23013
H     -1.88051    5.32420   -0.52933
H     -3.30017    6.21971    0.00615
C     -4.05342    4.19358   -1.40032
H     -4.63057    3.28416   -1.61490
H     -4.72042    5.06583   -1.51307
H     -3.22894    4.29249   -2.11973
H     -0.80107    1.63702   -2.09965
H      0.21587    2.66440    1.00498
H     -4.50868    1.03065    0.39214
C      0.51662    3.65799   -0.63492
H      1.55217    3.92842   -0.36469
H      0.12431    4.02233   -1.59729
C     -3.48394   -0.45155   -0.37235
H     -3.13310   -0.83576    0.59979
H     -4.36442   -1.01992   -0.71332
H     -2.68315   -0.54688   -1.11548
C     -2.48609    1.49386   -3.12270
H     -2.31457    2.24828   -3.90807
H     -2.19845    0.49641   -3.49107
H     -3.54585    1.48105   -2.84396
C     -2.11344    5.43008    1.62340
H     -1.40919    6.27506    1.65846
H     -2.89212    5.63181    2.37255
H     -1.57650    4.51883    1.92317
