22

O      0.80710   -1.04021   -2.05479
N      2.36948   -0.14618    0.10432
H      2.95008   -0.32062   -0.72297
H      2.70620   -0.79622    0.82101
Fe     0.28128   -0.54367   -0.60065
H      2.62825    0.78462    0.44472
P      0.25717    1.81862   -1.27461
H      1.20803    2.09244   -2.29086
H      0.56439    2.82421   -0.31543
P      0.41453   -2.86009    0.15699
H     -0.43348   -3.69634   -0.61293
H      1.67918   -3.44447   -0.10783
H      0.15049   -3.32155    1.47426
N     -1.81395   -0.68735   -1.16924
H     -2.30626   -1.52350   -0.84281
H     -2.39443    0.11418   -0.90665
H     -1.82095   -0.73202   -2.19308
P     -0.51484    0.19917    1.52145
H     -1.09407   -0.74382    2.41541
H      0.43209    0.79925    2.39753
Cl    -1.95053    1.59903    1.37966
Cl    -1.46830    2.44754   -2.06282
