52

O      7.42174   23.12556    5.97366
Fe     6.34466   22.17697    4.96932
N      5.97136   20.48184    6.12181
C      5.74987   19.21697    5.26564
C      4.70705   19.50830    4.18973
P      5.07057   21.13991    3.51509
C      3.65610   22.21867    3.17699
C      4.23264   23.61664    3.29395
N      5.01143   23.80851    4.54018
C      6.08151   20.85664    1.98487
C      7.48903   20.67746    2.53578
N      7.86738   21.68283    3.54007
C      9.11480   21.28115    4.20081
C      8.04834   22.99946    2.91943
H      4.78550   18.78042    3.36313
H      3.22254   22.04493    2.17874
H      2.86556   22.02014    3.91695
H      3.68289   19.47913    4.59205
H      6.02169   21.80233    1.40808
H      8.22448   20.68627    1.70990
H      7.54763   19.68445    3.00470
H      8.81516   22.95363    2.12577
H      7.10399   23.33241    2.47110
H      8.36327   23.71488    3.68979
H      9.94557   21.26077    3.47452
H      9.33811   21.99581    5.00285
H      8.99909   20.27553    4.62335
H      4.91583   23.80910    2.45303
H      3.43633   24.38029    3.23750
C      4.11533   23.84970    5.70394
H      4.71407   23.97397    6.61420
H      3.41792   24.70115    5.61912
H      3.53375   22.92547    5.77422
C      5.73288   25.08957    4.46486
H      6.34996   25.20847    5.36244
H      6.38214   25.10535    3.58305
H      5.01158   25.92082    4.38950
H      6.73094   19.08320    4.78461
C      4.76738   20.74558    6.91480
H      3.90994   20.93088    6.25629
H      4.54882   19.87211    7.55114
H      4.93269   21.61998    7.55385
C      7.09129   20.22735    7.03938
H      6.86874   19.33397    7.64453
H      8.01237   20.06290    6.46945
H      7.23332   21.09218    7.69534
N      5.65315   19.68730    1.28585
H      4.88755   19.87997    0.64323
H      6.40602   19.26551    0.74300
N      5.44240   18.10429    6.05883
H      4.49341   17.75293    6.00959
H      6.12447   17.35620    6.08626
