32

O     -2.62189    2.14914    1.93590
Fe    -2.49939    2.18572    0.19446
N     -3.71293    3.89943   -0.11193
O     -1.97379    1.96558   -1.95486
N     -0.36634    2.19544    0.35900
N     -3.60781    0.39023    0.11497
C     -4.90805    3.75843    0.73498
H     -5.56201    4.63802    0.60764
H     -5.46386    2.85571    0.44613
H     -4.60555    3.67737    1.78496
C     -2.88349    5.02865    0.33046
H     -1.99995    5.12263   -0.31715
H     -3.45551    5.97134    0.27200
H     -2.56734    4.86874    1.37000
C     -4.11363    4.06095   -1.51541
H     -4.68301    3.17843   -1.84297
H     -4.76487    4.94599   -1.62112
H     -3.22744    4.20476   -2.14630
H     -1.09982    1.68121   -2.25905
H     -2.56130    1.89947   -2.72126
C     -3.43262   -0.52996   -0.77509
H     -2.67653   -0.36851   -1.54453
H     -4.02318   -1.45833   -0.76757
C      0.42528    2.95845   -0.31925
H      1.51709    2.93234   -0.18310
H     -0.01406    3.64402   -1.04825
N     -4.56417    0.32868    1.03937
H     -4.30225    0.82863    1.88771
H     -5.02113   -0.57569    1.17121
N      0.06118    1.25890    1.19589
H     -0.60364    1.04637    1.93544
H      1.04947    1.26356    1.45486
