28

O     -0.42516    0.14406   -2.34468
N      1.87702   -0.97960   -1.10685
H      1.99239   -1.91449   -0.71012
H      2.71407   -0.45520   -0.83989
Fe    -0.07154    0.05457   -0.75777
H      1.93281   -1.08799   -2.12374
N      0.90715    1.95943   -0.81134
H      1.44024    2.20098    0.02715
H      1.60168    1.80196   -1.55079
P     -1.21375   -2.13670   -0.79042
H     -2.34769   -2.09641   -1.63987
H     -0.46862   -3.17340   -1.41161
H     -1.73772   -2.82773    0.33316
P     -2.30727    1.02546   -0.15662
H     -3.26580    0.08176    0.29971
H     -2.47793    2.02725    0.83600
H     -3.00823    1.59335   -1.25010
P      0.38063   -0.15033    1.59870
H     -0.55183    0.48275    2.46108
H      1.54462    0.58459    1.95366
C      0.64786   -1.77296    2.36577
H     -0.29606   -2.33793    2.37329
H      1.40624   -2.33758    1.80264
H      0.99316   -1.64389    3.40416
C      0.06354    3.09114   -1.21123
H      0.67210    3.98635   -1.42340
H     -0.49578    2.82024   -2.11763
H     -0.63743    3.34245   -0.40267
