46

O     -0.03889   -3.45271    0.92676
Fe    -0.15925   -2.25912    2.12848
N      1.94075   -2.14097    2.64357
N      0.28756   -0.41482    1.13630
N     -2.23981   -1.83604    2.54848
N     -0.18556   -3.17828    4.07700
C     -0.21814   -0.52860   -0.22411
C      1.75761   -0.25561    1.15129
C      2.33559   -0.74508    2.45350
C     -0.35238    0.66936    1.90846
C     -1.85548    0.59777    2.04885
C     -2.36997   -0.45339    3.00927
C     -3.07330   -2.13931    1.37510
C      0.95132   -2.60576    4.80960
C      2.20654   -2.70180    3.97425
C     -0.05781   -4.63085    3.89836
C     -1.48215   -2.83486    4.68057
C     -2.55300   -2.80587    3.62323
H      0.03176   -5.13104    4.87790
H     -0.94201   -5.01725    3.37709
H      0.81697   -4.86988    3.28233
H     -2.75473   -3.09945    0.95091
H     -4.13431   -2.18737    1.66602
H     -2.96798   -1.35624    0.61717
H      0.31765   -1.34046   -0.73195
H     -1.28652   -0.76665   -0.20173
H      2.02631    0.79570    0.95992
H      2.16328   -0.84682    0.31609
H      1.96743   -0.15878    3.30931
H      3.43412   -0.63336    2.44426
H      3.03693   -2.17425    4.47119
H      2.52408   -3.74717    3.85828
H     -1.75174   -3.55758    5.46978
H     -1.38881   -1.85856    5.17786
H     -3.53211   -2.55300    4.06527
H     -2.65684   -3.79094    3.14712
H     -1.81238   -0.37188    3.95377
H     -2.16102    1.56847    2.46706
H     -2.36199    0.54885    1.07496
H      0.11639    0.68594    2.90443
H     -0.09192    1.62217    1.41457
H      0.71455   -1.54889    5.01607
H      1.08773   -3.10432    5.78600
H      2.39423   -2.71275    1.92822
Br    -0.01310    1.07342   -1.26286
Br    -4.20403   -0.03560    3.50177
