28

O      0.53074    0.30666   -2.43519
P      2.55538   -0.18110   -0.41608
H      2.86090   -1.54936   -0.64658
Fe     0.37410    0.32782   -0.68911
H      3.29140    0.42638   -1.46526
P      0.96411    2.63985   -0.29426
H      1.76768    3.08408    0.79088
H      1.75601    3.11632   -1.37270
H     -0.00221    3.68324   -0.26681
P     -0.26741   -2.12175   -0.98013
H     -1.32629   -2.29772   -1.91090
H      0.72484   -2.87293   -1.66637
H     -0.66187   -3.13143   -0.05290
P     -1.76771    1.00584   -0.83750
H     -1.86996    1.93980   -1.90019
H     -2.67210    0.00609   -1.28528
P      0.02716   -0.21447    1.57642
H     -1.25433   -0.69675    1.94697
H      0.81670   -1.26028    2.12095
H      0.21405    0.77874    2.57778
C      3.49918    0.21366    1.07946
H      4.55832   -0.04493    0.91727
H      3.42608    1.28756    1.30436
H      3.12597   -0.36478    1.93749
C     -2.64673    1.79104    0.53814
H     -2.05086    2.62099    0.94596
H     -3.61088    2.18538    0.17783
H     -2.84588    1.05866    1.33425
