20

O     -0.40011   -0.23109   -2.17509
P      2.09418   -0.51873   -0.09028
O     -2.41461    0.38777   -0.23433
O     -0.36640    0.23360    1.73572
H     -2.91882    0.40337    0.59274
H     -3.05149    0.35819   -0.96446
H     -0.28410    1.05294    2.24652
H      0.00666   -0.45899    2.30208
Fe    -0.36469    0.03450   -0.47664
H      3.12961    0.41381    0.22431
P      0.54057    2.37991   -0.82322
H      1.06372    3.25004    0.17162
H      1.60866    2.40266   -1.75687
H     -0.37110    3.25192   -1.47577
P     -0.53508   -2.47232   -0.27076
H      0.49706   -3.19197   -0.91989
H     -0.66556   -3.20288    0.93866
H     -1.67014   -2.92509   -0.99063
Cl     2.31391   -1.79192    1.46899
Cl     2.88604   -1.40874   -1.70030
