48

O      7.32835   23.22661    6.04350
Fe     6.29844   22.23888    5.00835
N      5.92410   20.50184    6.19688
C      5.85851   19.32088    5.31463
C      4.85078   19.48296    4.19100
P      5.15170   21.12847    3.48419
C      3.64479   22.11672    3.23902
C      4.13209   23.55231    3.31518
N      4.91207   23.79893    4.54578
C      6.02929   20.92039    1.90352
C      7.44016   20.51840    2.29045
P      8.01597   21.65277    3.62975
C      9.54227   20.97328    4.29072
C      8.44902   23.20667    2.82494
H      4.97330   18.69709    3.42967
H      2.94997   21.87263    4.05795
H      3.80871   19.42855    4.54247
H      6.01728   21.88620    1.37334
H      5.53695   20.17615    1.25892
H      7.44959   19.50036    2.71504
H      9.31194   23.03393    2.16215
H      7.60680   23.57759    2.22637
H      8.70594   23.93475    3.60887
H     10.28725   20.92643    3.47963
H      9.89821   21.63811    5.09253
H      9.37920   19.96213    4.68999
H      4.78451   23.75556    2.45295
H      3.28165   24.25328    3.25405
C      4.03057   23.89151    5.71642
H      4.64352   24.03823    6.61432
H      3.33985   24.74648    5.61418
H      3.43995   22.97576    5.82693
C      5.65175   25.06265    4.39470
H      6.24135   25.24452    5.30013
H      6.33293   24.99200    3.53918
H      4.94771   25.89512    4.22558
H      5.63505   18.41918    5.91343
H      6.86730   19.18464    4.89553
C      4.67099   20.67793    6.93327
H      3.83502   20.81150    6.23573
H      4.46189   19.79970    7.56962
H      4.74756   21.56482    7.57379
C      7.04144   20.33820    7.13701
H      6.92824   19.40352    7.71308
H      7.98658   20.31183    6.58209
H      7.06814   21.18728    7.82766
Br     8.64321   20.47773    0.80326
Br     2.73885   21.73968    1.60135
