26

O      0.43911   -0.69597   -2.49687
N      2.59804   -1.04539   -0.58993
H      2.70288   -1.59065   -1.44998
H      2.87503   -1.66644    0.17429
Fe     0.40565   -0.32507   -0.79052
H      3.31770   -0.32021   -0.63974
P      0.56335    1.95913   -1.04754
H      1.84657    2.56829   -1.05885
H      0.02278    2.45630   -2.26070
H     -0.09527    2.76165   -0.08608
P     -0.52833   -2.42073   -0.47098
H     -1.49340   -2.84858   -1.41121
H      0.50953   -3.36573   -0.69980
H     -1.04193   -2.89185    0.76014
P     -2.15257    0.20563   -0.90695
H     -2.48358   -0.30938   -2.18465
H     -2.86226    1.45137   -0.98915
P      0.51535    0.03002    1.45927
H      0.80259   -1.13133    2.24679
H     -0.70416    0.41007    2.07481
N      1.51260    1.31151    1.89213
H      1.50860    1.59772    2.87326
H      2.46807    1.25256    1.54537
N     -2.97741   -0.87547    0.10394
H     -3.95234   -1.07149   -0.13412
H     -2.90925   -0.66235    1.09817
