26

O      1.97088    0.61503   -2.06451
N      3.19644    0.30099    0.43355
H      3.51539    1.16640    0.87895
H      3.88282    0.10075   -0.30090
Fe     1.29371    0.49678   -0.58766
H      3.29867   -0.43381    1.13837
N      1.19251    2.68511   -0.22955
H      1.59129    3.07141    0.62934
H      1.66357    3.15097   -1.01045
H      0.20586    2.97619   -0.25586
P      1.23485   -1.99741   -0.96036
H      0.40127   -2.35872   -2.04637
H      2.48780   -2.44130   -1.45633
H      0.93672   -3.04206   -0.04141
P     -0.86677    0.84818   -1.59387
H     -0.69357    1.47537   -2.84766
H     -1.62475   -0.30410   -1.95542
P      0.10863    0.17376    1.44901
H     -0.13890    1.36641    2.17615
H      0.79662   -0.56727    2.46081
N     -1.46028   -0.41309    1.23629
H     -2.02779   -0.51096    2.08189
H     -1.52048   -1.26745    0.68340
N     -1.77579    1.97572   -0.73850
H     -2.17366    1.57892    0.11563
H     -2.48206    2.48957   -1.27007
