33

O     -2.62698    2.28104    1.80727
Fe    -2.42628    2.29119    0.08447
N     -3.63029    3.93971   -0.27103
O     -2.09214    1.61532   -2.11730
N     -0.42232    2.58375    0.12085
O     -3.79681    0.67826    0.07930
C     -4.89154    3.86808    0.59752
H     -5.38482    2.93094    0.29486
H     -4.50637    3.74413    1.62047
C     -2.81794    5.09576    0.13261
H     -1.94222    5.19182   -0.52468
H     -3.42416    6.01395    0.05217
H     -2.48876    4.96207    1.17277
C     -4.01533    4.04339   -1.68049
H     -4.58655    3.15001   -1.97599
H     -4.66033    4.92789   -1.81777
H     -3.12456    4.16162   -2.31271
H     -1.60539    0.78939   -2.26210
H     -2.79245    1.61156   -2.78655
H     -0.07628    2.50195    1.07650
H     -3.98567    0.55388    1.02320
C      0.51766    3.02552   -0.67885
H      1.51812    3.24709   -0.27380
C     -3.99618   -0.54954   -0.62651
H     -3.19872   -1.27691   -0.39543
H     -4.97650   -0.97686   -0.36033
H     -3.99676   -0.32282   -1.70054
N     -5.70650    4.99102    0.43404
H     -5.76256    5.63796    1.21183
H     -6.60487    4.85302   -0.01338
N      0.37480    3.25025   -1.97458
H     -0.49016    3.00512   -2.44936
H      1.15803    3.58604   -2.52612
