28

O     11.97178    7.67038   12.90593
Fe    13.16975    7.64481   11.79106
N     14.68897    7.76093   10.15336
N     12.07304    8.16028   10.19137
O     14.78244    8.57657   12.75701
O     13.79405    5.63577   11.60894
C     14.17843    8.83404    9.23482
C     12.68367    8.67123    9.18749
C     15.98345    8.05797   10.76561
H     16.58321    7.13406   10.88304
H     16.62484    8.71264   10.14981
C     15.84785    8.60016   12.14907
C     14.67181    6.42953    9.54284
H     13.86791    6.35936    8.78458
H     15.59908    6.18070    8.99607
C     14.33355    5.36728   10.54068
H     12.13548    9.07591    8.32039
H     14.54386    4.30549   10.28335
H     16.75507    8.99953   12.65396
H     11.04749    8.14610   10.17123
C     14.35300   10.22000    9.86893
H     15.40743   10.53150    9.85007
H     13.79954   10.96761    9.28049
H     13.96266   10.25796   10.89666
C     14.81572    8.79861    7.85486
H     15.90734    8.90809    7.93560
H     14.59290    7.87637    7.30047
H     14.45002    9.64473    7.25464
