22

O      0.44798    0.10597   -2.26282
O     -0.59293   -2.06240   -0.49297
O      0.19538    2.10533   -0.27004
P      2.19884   -0.54839    0.03564
O     -2.30301    0.28282   -0.76643
O     -0.74108    0.01405    1.52949
H     -0.65029   -2.24173    0.46273
H      0.23689    2.36336    0.66745
H      2.98720   -1.13247   -0.98116
H      2.45149   -1.40531    1.13638
H     -2.70920    1.08165   -1.13742
H     -2.83380   -0.45580   -1.10364
H     -0.25872   -0.04946    2.36691
H     -1.66707    0.18352    1.76367
Fe    -0.13709    0.05531   -0.63163
H      2.98787    0.58440    0.37625
N      0.55857   -2.80673   -0.92314
H      0.23810   -3.78499   -0.96226
H      0.63893   -2.52324   -1.90664
N      1.33496    2.71619   -0.86829
H      1.01519    3.65002   -1.15933
H      1.45168    2.17319   -1.73169
