26

O      0.45837    0.33447   -2.62073
P      2.37874   -0.04270   -0.71580
H      2.73813   -1.38502   -1.05315
H      3.04644    0.06520    0.53271
Fe     0.21507    0.36649   -0.87616
P      0.76838    2.68062   -0.30475
H      1.96314    3.11303    0.32705
H      0.88081    3.41253   -1.51661
H     -0.17173    3.49935    0.37598
P     -0.51976   -2.04751   -1.00729
H     -1.35594   -2.23527   -2.13947
H      0.46493   -3.02838   -1.30809
H     -1.27933   -2.81598   -0.07747
P     -1.99439    0.96634   -0.86342
H     -2.34593    2.33452   -1.01414
H     -2.73590    0.39757   -1.93158
H     -2.82463    0.62151    0.23572
P      0.16617   -0.13725    1.39470
H     -1.13603   -0.36236    1.90797
H      0.75281   -1.40160    1.72611
N      0.70697    1.08981    2.39674
H      1.68660    1.35153    2.30837
H      0.42434    1.05886    3.37772
N      3.17018    1.08759   -1.64284
H      2.75183    1.24820   -2.55841
H      4.19013    1.11285   -1.64838
