26

O      0.72866   -0.58534   -2.65883
N      2.42556    0.52373   -0.43899
H      2.89516   -0.19977    0.12236
H      2.63506    1.42616   -0.00681
Fe     0.34996   -0.20321   -0.98437
H      2.89868    0.52552   -1.34695
P     -0.06765    2.05098   -1.38397
H      0.09134    2.95991   -0.30440
H      0.73482    2.68567   -2.36583
H     -1.36091    2.44083   -1.82069
P      1.28174   -2.25295   -0.48453
H      2.09295   -2.72518   -1.54412
H      0.32084   -3.30971   -0.39016
N     -1.79111   -0.86880   -1.33213
H     -1.84292   -0.91085   -2.35309
H     -1.99770   -1.82082   -1.01746
H     -2.58726   -0.30039   -1.03124
P     -0.39478   -0.07105    1.18253
H     -1.31696    0.98085    1.48728
H     -1.21201   -1.17407    1.54114
N      0.79139   -0.15399    2.38699
H      1.48686    0.59041    2.34211
H      0.44478   -0.23431    3.34639
N      2.31509   -2.20190    0.82676
H      2.90364   -3.01348    1.01952
H      1.90303   -1.78047    1.66839
