26

O      0.10738   -0.03036   -2.50324
N      2.22399   -0.80993   -0.72576
H      2.97675   -0.12938   -0.86106
H      2.29313   -1.46530   -1.50985
Fe     0.29485    0.11344   -0.76910
H      2.46359   -1.33367    0.11925
P      1.08353    2.51453   -1.15894
H      2.14156    2.65715   -2.09428
H      0.09439    3.27488   -1.83573
H      1.49204    3.47133   -0.18984
P     -0.56021   -2.34843    0.09168
H     -1.93053   -2.49524    0.42295
H     -0.45375   -3.37845   -0.88568
H      0.02032   -3.01022    1.20540
P     -1.94625    0.46557   -1.06656
H     -2.13743    1.53406   -1.98994
H     -2.51162   -0.61805   -1.77781
P      0.21362    0.52001    1.49923
H      1.36817    0.08645    2.20514
H      0.23498    1.89916    1.88022
N     -1.02275   -0.31510    2.25238
H     -1.07992   -0.28407    3.27096
H     -1.93241   -0.17437    1.79327
N     -3.01799    0.62719    0.23848
H     -3.02833    1.55667    0.66210
H     -3.98045    0.33277    0.05579
