36

O     -2.46976    2.62407    1.73042
Fe    -2.55351    2.33212    0.03880
N     -3.67323    4.07090   -0.37926
O     -2.41627    1.58463   -2.03153
O     -0.51487    2.70144   -0.06047
O     -3.30997    0.38082    0.20712
C     -5.01478    3.74500    0.12776
H     -5.67242    4.62909    0.06111
H     -5.46072    2.94354   -0.47792
H     -4.94557    3.43408    1.17930
C     -3.09599    5.19370    0.37724
H     -2.03686    5.31980    0.11996
H     -3.63785    6.12288    0.13137
H     -3.18312    4.98850    1.45008
C     -3.73702    4.36881   -1.82985
H     -4.15788    3.47662   -2.31866
H     -4.48255    5.17366   -1.96838
H     -2.32481    0.64094   -2.22553
H     -2.24354    2.05599   -2.85841
H     -0.20616    2.98093    0.81576
C     -4.60703    0.04294   -0.29233
H     -4.64449   -1.03659   -0.51387
H     -5.38415    0.29448    0.44931
H     -4.76328    0.60973   -1.21972
C      0.58403    2.19880   -0.83528
H      1.34554    2.98750   -0.94762
H      1.02358    1.30960   -0.35335
H      0.18992    1.92906   -1.82202
C     -2.93316   -0.38856    1.35543
H     -1.91600   -0.08672    1.63676
H     -3.62899   -0.19905    2.18888
H     -2.94575   -1.45851    1.09076
C     -2.41945    4.77835   -2.44307
H     -2.12171    5.79439   -2.14763
H     -1.59377    4.10357   -2.16864
H     -2.51633    4.78475   -3.53977
