22

O     -3.63718    2.74546    0.78505
Fe    -2.52840    1.30771    0.11207
P     -5.00760    3.44528    0.85231
N     -0.86926    1.57750   -1.19561
H     -1.03550    2.33108   -1.87217
H     -0.01268    1.85791   -0.70559
N     -2.09186   -0.21417    1.53100
H     -1.74187   -1.10519    1.16206
H     -1.39915    0.07930    2.22817
N     -4.05675    0.52178   -1.17576
H     -4.33920   -0.45019   -1.01619
H     -4.90159    1.08724   -1.00847
H     -2.92091   -0.46708    2.07978
H     -5.59609    3.13423    2.10237
H     -3.88545    0.58497   -2.18424
H     -0.60074    0.76789   -1.76599
N     -6.12966    2.88694   -0.23585
H     -7.01871    2.54208    0.12563
H     -6.23408    3.40680   -1.10756
N     -4.77850    5.03296    0.52390
H     -5.58526    5.65471    0.47919
H     -3.94564    5.48416    0.89974
