28

O     12.18877    6.80235   13.37370
Fe    13.15559    7.09349   12.02244
N     14.50523    7.66706   10.30765
F     12.00506    8.46241   10.64146
F     15.05938    8.12603   12.95802
N     14.00033    5.44337   11.62464
C     14.10065    8.91598    9.59576
H     14.31828    9.73448   10.30008
C     12.59172    8.85714    9.42069
C     15.88405    7.70202   10.79626
H     16.55280    8.08563   10.00225
C     16.02740    8.53561   12.04535
C     14.44770    6.43861    9.50872
H     13.42693    6.20615    9.17866
H     15.12102    6.49148    8.63438
C     14.89452    5.45481   10.56749
H     12.18981    9.84904    9.16367
H     15.24069    4.47503   10.19989
H     17.02164    8.41577   12.50804
H     13.93053    4.57719   12.15782
H     15.87257    9.60290   11.82121
H     12.28342    8.12520    8.65611
N     14.83371    9.10807    8.40346
H     14.37987    8.77280    7.55631
H     15.16676   10.05686    8.25677
N     16.20632    6.25607   11.02416
H     16.35250    6.04329   12.01806
H     17.04824    5.97052   10.50792
