23

O     -2.64631    1.69718    1.87101
Fe    -2.67109    1.73485    0.14412
H     -4.08448    4.18772   -0.45415
N     -2.70097    2.03751   -2.03951
H     -2.29098    2.95202   -2.25744
N     -0.55572    1.79781    0.16925
H     -0.32059    2.42722    0.94374
N     -3.64096   -0.17367   -0.06582
H     -2.97908   -0.94484   -0.20453
H     -4.13286   -0.39586    0.80566
H     -0.13148    2.21077   -0.66645
H     -3.83304    4.00376    1.06854
H     -4.33432   -0.26723   -0.81494
H     -3.67184    2.12822   -2.35798
O     -3.66508    3.60832    0.19922
C     -2.03803    1.02143   -2.87527
H     -0.97267    0.95318   -2.61311
H     -2.50001    0.03772   -2.70879
H     -2.11093    1.25595   -3.94995
C      0.02554    0.47272    0.43207
H     -0.20470   -0.20954   -0.39972
H      1.12226    0.52805    0.53832
H     -0.39786    0.07498    1.36551
