23

O     -0.21662    0.01755   -2.14785
O     -0.38011   -2.22861   -0.36688
O     -0.08805    2.09426   -0.15114
P      2.23663   -0.43639   -0.10508
N     -2.35594   -0.11951   -0.32738
O     -0.24288   -0.26793    1.85849
H     -0.65061   -2.46191    0.53808
H     -0.00684    2.64488    0.64041
H     -0.03917    2.69277   -0.91164
H      2.91875   -0.49599   -1.35256
H      2.66143   -1.66074    0.46285
H     -2.76545    0.50677   -1.02638
H     -2.57553   -1.08568   -0.63853
H     -0.93629   -0.12440    2.52894
Fe    -0.23180   -0.00975   -0.43331
H      3.05459    0.49843    0.57477
H     -2.86399    0.04985    0.54356
N     -1.46731   -2.66459   -1.19079
H     -1.39604   -3.69123   -1.21713
H     -1.16306   -2.35554   -2.12184
N      1.02332   -0.37408    2.45486
H      1.17931    0.45771    3.03541
H      1.01219   -1.18440    3.08503
