23

O      0.32855   -0.19607   -2.11912
O     -0.63640   -2.02835   -0.20340
O      0.31241    2.14082   -0.34827
P      2.20584   -0.55818    0.10826
N     -2.23948    0.47808   -0.52748
O     -0.58857    0.09630    1.83091
H     -0.56029   -2.32995    0.71742
H      0.35952    2.73017    0.41788
H      0.77432    2.59269   -1.07013
H      3.17476    0.16479   -0.63102
H      2.51721   -1.89318   -0.25307
H     -2.47330    1.37519   -0.96043
H     -2.80000   -0.23401   -1.00236
H      0.03721    0.04430    2.57576
Fe    -0.17136    0.04912   -0.48287
H      2.77823   -0.49717    1.40784
H     -2.54865    0.51589    0.46523
N      0.11077   -2.98395   -0.95498
H     -0.57982   -3.69352   -1.23426
H      0.33354   -2.46024   -1.80960
N     -1.88571    0.38366    2.28421
H     -1.85408    1.24307    2.84462
H     -2.18818   -0.37558    2.90550
