30

O     11.82745    7.42507   12.90552
Fe    13.06831    7.44561   11.76872
N     14.61473    7.72975   10.19505
N     12.01914    8.15482   10.16368
F     14.74334    8.22569   12.89345
N     13.61007    5.49948   11.43563
C     14.16362    8.85415    9.31734
C     12.66785    8.72489    9.21790
C     15.92485    7.87615   10.85923
H     16.27612    6.85691   11.07707
H     16.67730    8.32831   10.18916
C     15.88832    8.64264   12.16042
C     14.58814    6.45196    9.46606
H     13.81272    6.47987    8.67835
H     15.53338    6.25243    8.93193
C     14.21906    5.29708   10.32841
H     12.15658    9.20631    8.36774
H     14.44251    4.28084    9.95931
H     16.76846    8.40024   12.77646
H     13.33483    4.66872   11.96953
H     10.99588    8.16999   10.10220
H     15.80516    9.73076   12.05896
C     14.33931   10.21503    9.99818
H     15.40070   10.49967   10.01921
H     13.81765   10.98809    9.41389
H     13.91235   10.22532   11.01195
C     14.83820    8.87663    7.95246
H     14.51670    9.76853    7.39530
H     15.92945    8.94442    8.07014
H     14.60259    7.99874    7.33585
