33

O     -2.57804    2.41140    1.82336
Fe    -2.43725    2.30893    0.09879
N     -3.63686    3.95178   -0.29504
O     -2.15828    1.45109   -2.06865
N     -0.49109    2.85079    0.00952
O     -3.68840    0.60630    0.24804
C     -5.00178    3.62817    0.14240
H     -5.65697    4.49900   -0.02512
H     -5.38778    2.77302   -0.42932
H     -4.98691    3.37783    1.21195
C     -3.10880    5.14159    0.51644
H     -2.06370    5.26419    0.19130
H     -3.11081    4.77539    1.55436
C     -3.61397    4.28178   -1.72206
H     -4.11563    3.49526   -2.30285
H     -4.16201    5.22598   -1.88328
H     -2.57673    4.41236   -2.06455
H     -1.75406    0.57263   -2.14314
H     -2.87727    1.44195   -2.71830
H     -0.15099    3.00822    0.95809
H     -3.86246    0.52544    1.19838
C      0.43005    3.15910   -0.87279
H      1.40611    3.53923   -0.53082
C     -3.93943   -0.63981   -0.40576
H     -3.10752   -1.34825   -0.24782
H     -4.87496   -1.07950   -0.02420
H     -4.06748   -0.44062   -1.47812
N      0.29135    3.06333   -2.18341
H     -0.55723    2.66666   -2.58177
H      1.05716    3.31481   -2.80050
N     -3.87236    6.29411    0.31925
H     -3.42713    7.07773   -0.14261
H     -4.47636    6.58637    1.07840
