45

O     -0.43237   -3.36427    0.82280
Fe    -0.25463   -2.17061    2.02232
N      1.87729   -2.25244    2.50837
N      0.21726   -0.31948    1.09655
N     -2.26519   -1.84774    2.61673
O     -0.21273   -2.67843    4.06120
C     -0.25919   -0.26592   -0.29315
C      1.68653   -0.24894    1.12597
C      2.25564   -0.83487    2.39545
C      2.50582   -3.09436    1.49847
C     -0.41528    0.72529    1.93618
C     -1.91142    0.60844    2.13668
C     -2.38600   -0.45745    3.09901
C     -3.19026   -2.11669    1.50750
C      0.97880   -2.38839    4.78312
C      2.10218   -2.78446    3.86490
C     -1.44602   -2.71534    4.77033
C     -2.50981   -2.81290    3.70758
H     -3.06765   -3.15503    1.17654
H     -4.23150   -1.94794    1.83085
H     -2.97189   -1.45600    0.66132
H      0.04462    0.68808   -0.75493
H      0.16695   -1.10660   -0.85495
H     -1.35044   -0.34700   -0.32184
H      2.04722   -0.81625    0.25848
H      2.20415   -2.76900    0.49593
H      2.16867   -4.12796    1.64729
H      1.88748   -0.29369    3.27773
H      3.35454   -0.74186    2.38239
H      3.07844   -2.45638    4.25778
H      2.13141   -3.88020    3.78298
H     -1.47779   -3.59903    5.43035
H     -1.53975   -1.81377    5.39952
H     -3.50948   -2.65353    4.14927
H     -2.49936   -3.81837    3.25960
H     -1.80900   -0.37213    4.03121
H     -3.44408   -0.27842    3.36310
H     -2.22611    1.57066    2.57246
H     -2.44757    0.56057    1.17818
H      0.09637    0.72450    2.91150
H     -0.18519    1.69808    1.47011
H      0.98950   -1.31858    5.06087
H      1.01945   -2.98346    5.71054
Br     4.42465   -3.07405    1.56824
Br     2.39768    1.51958    0.85479
