54

O      7.76575   23.59673    5.44851
Fe     6.72840   22.40969    4.91153
N      4.83432   20.23770    6.36272
C      5.36827   19.51102    5.20188
C      4.96900   20.09394    3.86625
N      5.61827   21.35405    3.40909
C      4.58246   22.32055    2.90266
C      3.91004   22.95593    4.11645
N      4.93126   23.77266    4.88466
C      6.60185   21.06482    2.34469
C      7.85489   20.43780    2.89629
N      8.51762   21.33079    3.88647
C      9.34588   20.57577    4.87888
C      9.34141   22.37667    3.19045
H      5.14275   19.32151    3.10141
H      5.14320   23.08179    2.34846
H      3.88888   20.25549    3.87628
H      6.82474   21.99942    1.81591
H      6.17123   20.37567    1.59984
H      8.54815   20.18761    2.07956
H      7.61925   19.49763    3.40621
F     10.06623   21.83962    2.22991
F      8.49445   23.24993    2.64744
F     10.12109   22.99417    4.04445
F     10.46099   20.14850    4.32888
F      9.60512   21.34692    5.91376
F      8.64071   19.52578    5.29885
H      3.70396   22.13087    4.81304
C      4.47845   24.08237    6.28478
F      5.54033   24.15853    7.07285
F      3.80850   25.21497    6.32575
F      3.70662   23.10036    6.71210
C      5.42043   25.01285    4.20986
F      6.07532   25.76404    5.06668
F      6.26560   24.63195    3.24122
F      4.44636   25.70404    3.66548
H      5.02144   18.46451    5.22509
H      6.45488   19.44525    5.31002
C      3.51576   19.77092    6.79162
F      2.73195   19.75160    5.70758
F      3.58127   18.53927    7.28286
F      2.98942   20.57552    7.68626
C      5.79532   20.45254    7.37399
F      6.49545   19.39495    7.72805
F      6.77816   21.33311    6.78792
F      5.34302   21.07566    8.41929
C      3.60202   21.70992    1.92078
H      2.86130   21.04794    2.38947
H      3.05148   22.51273    1.41243
H      4.13152   21.14588    1.14080
C      2.59556   23.65234    3.83092
H      1.84461   22.88454    3.60033
H      2.22953   24.20062    4.70757
H      2.65284   24.34503    2.98312
