20

O     12.50739    7.49712   13.22588
Fe    13.44719    7.57267   11.78944
O     14.67564    7.69865    9.86408
N     12.31976    9.13880   10.95778
N     15.26700    7.80664   12.77680
N     12.87820    5.64531   11.31369
C     12.65829   10.22016   10.36798
C     16.30585    8.51038   12.50251
C     13.08009    4.89907   10.28806
H     11.92612   11.00354   10.10611
H     15.29321    7.37443   13.70805
H     12.30289    5.21250   12.04559
H     11.31793    9.08044   11.17864
H     14.34338    7.93106    8.98451
H     15.52237    7.25573    9.70599
H     13.67917    5.27046    9.44462
H     13.71370   10.39263   10.10600
H     16.37753    9.03739   11.53902
Cl    17.62014    8.71520   13.51556
Cl    12.48903    3.34753   10.10676
