33

O     -2.30654    2.49548    1.70028
Fe    -2.56426    2.42800    0.01879
N     -3.82230    4.11330   -0.23120
N     -1.83889    1.10871   -1.52170
O     -0.77237    3.53880   -0.31739
O     -3.40353   -0.34125    0.27862
C     -5.15703    3.78729    0.29274
H     -5.80421    4.67887    0.23033
H     -5.61264    2.99228   -0.31140
H     -5.07303    3.48707    1.34639
C     -3.23108    5.23762    0.50297
H     -2.22017    5.41516    0.11866
H     -3.19344    4.97547    1.56853
C     -3.85306    4.34728   -1.68262
H     -4.22487    3.44710   -2.19526
H     -4.52545    5.18914   -1.91986
H     -2.84500    4.60300   -2.03775
H     -2.17036    0.17018   -1.25984
H     -2.15524    1.27504   -2.48151
H     -0.81861    1.04609   -1.57234
H     -0.33589    3.74296    0.52358
C      0.12653    3.75597   -1.40993
H      0.50183    4.79248   -1.39237
H      0.97642    3.05342   -1.36799
H     -0.43953    3.60076   -2.33843
C     -4.21047   -1.46334    0.63692
H     -4.62600   -1.33883    1.65364
H     -5.02395   -1.61799   -0.09617
H     -3.53008   -2.32736    0.62189
N     -4.11384    0.84572    0.24372
H     -4.56149    0.99720    1.15931
H     -4.87896    0.76486   -0.44406
Br    -4.20567    6.87883    0.32163
