46

O     -0.07655   -3.46969    0.95409
Fe    -0.17956   -2.24673    2.12492
N      1.91532   -2.13643    2.67157
N      0.27335   -0.40298    1.11722
N     -2.24546   -1.87657    2.57674
N     -0.20333   -3.17040    4.09103
C     -0.22346   -0.41566   -0.26578
C      1.73976   -0.32524    1.10515
C      2.33410   -0.75731    2.42465
C     -0.34585    0.67505    1.91960
C     -1.84369    0.58095    2.11057
C     -2.35903   -0.48218    3.05419
C     -3.08278   -2.12276    1.39537
C      0.90146   -2.54996    4.83303
C      2.17497   -2.63867    4.02753
C     -0.01771   -4.61724    3.91344
C     -1.50856   -2.88628    4.69930
C     -2.56390   -2.85722    3.61885
H      0.10514   -5.11190    4.89214
H     -0.89276   -5.03966    3.40469
H      0.85608   -4.82271    3.28413
H     -2.91349   -3.14696    1.03995
H     -4.14625   -1.99173    1.65483
H     -2.82340   -1.42428    0.59452
H      0.06828    0.51727   -0.77587
H      0.20186   -1.27821   -0.79407
H     -1.31368   -0.49988   -0.27689
H      2.08050   -1.00907    0.31228
H      1.98710   -0.11651    3.24824
H      3.43203   -0.66541    2.38321
H      2.97877   -2.06628    4.51782
H      2.52755   -3.67686    3.95810
H     -1.77114   -3.64753    5.45135
H     -1.46692   -1.92328    5.22558
H     -2.62505   -3.83454    3.11924
H     -1.82102   -0.41158    4.01114
H     -3.42194   -0.29208    3.28117
H     -2.14489    1.54262    2.55724
H     -2.37309    0.55958    1.14728
H      0.15334    0.69148    2.90115
H     -0.09892    1.63371    1.43234
H      0.63518   -1.49358    5.00387
H      1.02820   -3.01934    5.82523
H      2.36899   -2.74336    1.98616
Br     2.42945    1.40320    0.60483
Br    -4.29679   -2.60181    4.42645
