36

O     -2.45771    1.83187    1.72527
Fe    -2.22787    2.14231    0.06383
N     -3.46480    3.79284   -0.30416
O     -1.28661    1.55020   -1.81603
O     -0.22116    2.70877    0.38653
O     -3.62493    0.65748   -0.34978
C     -4.69113    3.67085    0.49778
H     -5.34499    4.54010    0.31299
H     -5.22100    2.75483    0.20700
H     -4.43886    3.61802    1.56217
C     -2.72092    5.04429   -0.01530
H     -1.83742    5.04372   -0.67332
H     -3.35460    5.88432   -0.35636
C     -3.78308    3.72162   -1.73802
H     -4.30158    2.77798   -1.95714
H     -4.45089    4.55394   -2.02085
H     -2.86236    3.80174   -2.33366
H     -0.38289    1.20079   -1.82358
H     -1.70911    1.20724   -2.61619
H      0.03380    2.62580    1.31733
H     -3.91772    0.27825    0.49473
C     -3.84344   -0.31465   -1.40505
H     -3.90730    0.27087   -2.33614
H     -2.95926   -0.97447   -1.45615
C      0.68019    3.59733   -0.29129
H      0.63948    4.60384    0.15531
H      1.70752    3.20114   -0.23932
H      0.36038    3.64565   -1.34035
C     -5.10599   -1.09075   -1.16512
H     -5.98783   -0.43233   -1.12844
H     -5.25160   -1.80796   -1.98904
H     -5.04778   -1.67928   -0.23376
C     -2.32952    5.24182    1.42662
H     -1.69623    6.13899    1.49840
H     -3.19941    5.41064    2.07666
H     -1.76091    4.38851    1.82177
