18

O     -2.81582    1.36132    2.13613
Fe    -2.79874    1.71272    0.49019
O     -3.46429    3.54220    0.31353
H     -3.30826    3.88609   -0.67489
O     -2.48254    2.24390   -1.72792
O     -0.13419    1.42154   -0.83632
H      0.78129    1.08360   -0.84015
O     -3.87517    0.11451   -0.24969
H     -4.34577   -0.51797    0.31688
H     -4.26596    0.05185   -1.13583
H     -3.80990    4.20417    0.92954
H     -1.59021    1.97388   -2.03103
N     -0.70961    1.16643    0.39500
H     -0.21056    1.67436    1.14154
H     -0.64844    0.16326    0.62765
N     -2.72144    3.59259   -2.03369
H     -1.83063    4.07388   -2.20935
H     -3.27494    3.62367   -2.90008
