29

O     -2.11913    2.58987    1.89058
Fe    -2.23755    2.32520    0.20151
N     -3.56889    3.90872   -0.19568
O     -1.93224    1.30305   -1.66275
N     -0.30877    3.12464   -0.11928
O     -3.51956    0.54715    0.60896
C     -4.86146    3.53714    0.40059
H     -5.58699    4.35359    0.24702
H     -5.23975    2.62934   -0.08768
H     -4.72846    3.38190    1.48025
C     -2.99329    5.09765    0.44480
H     -2.00693    5.29608    0.00439
H     -2.89609    4.90199    1.52041
C     -3.67234    4.05578   -1.65563
H     -4.08284    3.13541   -2.08975
H     -4.34583    4.89559   -1.89552
H     -2.68243    4.27149   -2.08054
H     -1.18969    0.72958   -1.90327
H     -2.73034    0.92312   -2.09748
H      0.17698    3.37088    0.75134
H     -4.19222    0.72343    1.28416
C      0.34038    3.40204   -1.18423
H      1.34221    3.86505   -1.15819
H     -0.10498    3.17959   -2.16575
C     -3.91340   -0.52884   -0.19454
H     -4.60041   -1.20289    0.33946
H     -3.01811   -1.07255   -0.52444
Br    -4.83465    0.05600   -1.80445
Br    -4.04542    6.68234    0.21639
