20

O     -3.11762    1.07983    1.65623
Fe    -2.78150    1.66638    0.08802
O     -4.16752    3.26980   -0.19978
H     -4.08774    4.00371   -0.82766
N     -2.00337    1.57965   -1.99464
H     -1.37350    1.99877   -2.68714
O     -1.07516    2.91876    0.54204
H     -0.74464    2.96902    1.45238
H     -0.81196    3.75012    0.11947
N     -4.29785    0.30947   -0.70986
H     -3.92409   -0.62096   -0.49861
H     -5.15597    0.39012   -0.14651
H     -4.69363    3.60762    0.54231
H     -2.81254    1.11657   -2.46837
N     -1.38220    0.60973   -1.16891
H     -0.43682    0.90487   -0.90997
H     -1.33137   -0.33078   -1.57903
N     -4.51233    0.41128   -2.10121
H     -5.09159    1.23641   -2.27227
H     -5.03409   -0.39538   -2.46136
