39

O      0.60298    0.20338    3.18858
N      0.30504   -1.97562    0.88158
C      1.15032   -1.85509   -0.31852
H      0.56457   -1.34363   -1.09785
H      1.40103   -2.85460   -0.71728
C     -1.06810   -2.40729    0.55955
H     -1.54327   -2.71333    1.50318
H     -1.05866   -3.28610   -0.10894
C      2.41810   -1.08776   -0.02021
H      3.04615   -1.64422    0.68714
H      3.01600   -0.96906   -0.93968
C     -1.87388   -1.29012   -0.04816
H     -2.93139   -1.59188   -0.13467
H     -1.51800   -0.99801   -1.05242
C      1.86027    1.24919   -0.45413
H      2.80910    1.56975   -0.91958
H      1.25856    0.78195   -1.24943
C     -2.34787    1.05398    0.45345
H     -2.74667    1.51538    1.37193
H     -3.19042    0.87619   -0.23255
C     -1.27430    1.90370   -0.18134
H     -0.92602    1.43685   -1.11592
H     -1.66201    2.90387   -0.44413
C      1.12509    2.44008    0.11935
H      1.72858    2.94064    0.88945
H      0.93751    3.18479   -0.67227
N     -0.13185    1.99420    0.73949
Fe     0.23470    0.04094    1.56055
N      2.12164    0.22902    0.57851
O     -1.75740   -0.18869    0.85405
H     -0.37294    2.61925    1.51295
C      3.18551    0.64462    1.50310
H      3.28777   -0.10394    2.29867
H      4.14214    0.75006    0.96370
H      2.92697    1.60011    1.97470
C      0.89840   -2.84989    1.90209
H      1.00310   -3.87939    1.51895
H      1.88409   -2.47356    2.20070
H      0.25373   -2.85522    2.79097
