54

O      7.28571   23.41962    6.06233
Fe     6.34109   22.35849    5.05971
P      6.03442   20.50635    6.35636
C      5.69262   19.10526    5.22634
C      4.68516   19.55098    4.18210
P      5.15996   21.20253    3.53803
C      3.65255   22.06673    2.97249
C      4.00385   23.54097    2.88523
P      4.88720   23.97687    4.42645
C      6.14027   20.89565    2.02244
C      7.54860   20.51185    2.42892
P      8.08369   21.70422    3.70786
C      9.63284   21.10525    4.40622
C      8.47650   23.21833    2.76240
H      4.59137   18.83228    3.35199
H      3.30663   21.64782    2.01317
H      2.86234   21.88518    3.71828
H      3.68392   19.66354    4.62944
H      6.13585   21.83523    1.44680
H      5.64176   20.12771    1.40830
H      8.24815   20.52734    1.57681
H      7.58243   19.49910    2.85975
H      9.07130   22.88939    1.89034
H      7.51265   23.58464    2.37143
H     10.42706   21.12005    3.64249
H      9.91459   21.75702    5.24608
H      9.50395   20.07646    4.77205
H      4.68766   23.74358    2.04447
H      3.11609   24.18080    2.74923
C      3.58960   24.14333    5.69016
H      2.89574   24.92608    5.33419
H      3.03112   23.19264    5.68541
C      5.64405   25.59526    4.21592
H      6.20721   25.83134    5.12974
H      6.34424   25.57381    3.36938
H      4.86603   26.35496    4.03794
H      5.33625   18.23187    5.79756
H      6.65417   18.82631    4.76764
C      4.56153   20.62060    7.40742
H      3.68861   20.91104    6.80653
H      4.36957   19.64943    7.89232
H      4.72344   21.38575    8.17966
C      7.37247   19.96346    7.43702
H      7.10459   19.01231    7.92459
H      8.29121   19.83216    6.84939
H      7.55290   20.73118    8.20176
C      9.19630   24.28177    3.56488
H      8.63987   24.54534    4.47455
H     10.19948   23.94457    3.86385
H      9.32561   25.18559    2.94953
C      4.14091   24.45200    7.06625
H      3.32675   24.47100    7.80657
H      4.87629   23.69663    7.37047
H      4.63875   25.43205    7.09382
