54

O      7.31605   23.32428    6.16187
Fe     6.37522   22.29957    5.10811
P      6.02832   20.39103    6.35782
C      5.52989   19.05542    5.20833
C      4.53838   19.61283    4.20533
P      5.15775   21.21065    3.56069
C      3.72690   22.16498    2.94281
C      4.14217   23.62376    2.92756
P      4.95911   23.97390    4.52703
C      6.16441   20.82028    2.07585
C      7.56649   20.43704    2.50701
P      8.09828   21.65166    3.76616
C      9.68303   21.12322    4.43597
C      8.40229   23.18219    2.81165
H      4.33714   18.91889    3.37283
H      3.41707   21.79543    1.95147
H      2.88844   21.99449    3.63683
H      3.57287   19.83109    4.69088
H      6.17925   21.73329    1.45866
H      5.66531   20.03396    1.48619
H      8.27407   20.43164    1.66128
H      7.59335   19.43402    2.96058
H      8.94296   22.87736    1.89652
H      7.41082   23.54189    2.48919
H     10.45701   21.15655    3.65240
H      9.95660   21.79847    5.25966
H      9.60273   20.09758    4.82255
H      4.88035   23.82485    2.13334
H      3.29191   24.30747    2.76722
C      3.62004   24.09805    5.73530
H      4.04717   24.35742    6.71369
H      2.90770   24.88061    5.42675
H      3.09692   23.13556    5.82050
C      5.70108   25.60962    4.41555
H      6.19358   25.83466    5.37237
H      6.45943   25.62226    3.62061
H      4.92523   26.36233    4.20210
H      5.11311   18.20507    5.77307
H      6.44727   18.70027    4.71425
C      4.65927   20.54007    7.53437
H      3.74231   20.84525    7.01103
H      4.49289   19.57451    8.03931
H      4.90688   21.30315    8.28470
C      7.44258   19.73571    7.28805
H      7.09164   18.81651    7.79118
H      8.17971   19.42288    6.53095
C      9.15637   24.24173    3.58871
H      8.66562   24.46505    4.54600
H     10.18694   23.92195    3.80003
H      9.21773   25.16575    2.99328
C      8.04070   20.72951    8.26242
H      8.91025   20.28101    8.76674
H      8.36653   21.64089    7.74209
H      7.32114   21.01586    9.04360
