36

O     -1.78186    2.32596    1.46635
Fe    -2.39922    2.33618   -0.13246
N     -3.65940    4.01563   -0.09619
O     -2.65443    1.71898   -2.23019
O     -0.60041    3.18243   -0.74802
O     -3.19653    0.40685    0.09294
C     -5.00697    3.56051    0.32831
H     -5.69025    4.42557    0.23782
H     -5.34124    2.82681   -0.42404
C     -3.08906    5.02440    0.80973
H     -2.11616    5.35129    0.41849
H     -3.76119    5.89766    0.86416
H     -2.95183    4.60008    1.80924
C     -3.71966    4.55521   -1.46309
H     -4.22441    3.83945   -2.12585
H     -4.29859    5.49488   -1.47231
H     -2.70368    4.77388   -1.82302
H     -2.46085    0.81534   -2.51999
H     -2.58851    2.27030   -3.02266
H     -0.12025    3.34977    0.08018
H     -2.93323    0.01676    0.94037
C     -4.45400   -0.15043   -0.32632
H     -4.35391   -1.24171   -0.44292
H     -5.24520    0.08402    0.40367
H     -4.70009    0.29888   -1.29679
C      0.35260    2.69916   -1.73305
H      1.14901    3.45961   -1.80324
H     -0.18946    2.70324   -2.68883
C      0.89116    1.34207   -1.38052
H      0.08960    0.58661   -1.33074
H      1.61039    1.01892   -2.15033
H      1.42710    1.35374   -0.41752
C     -5.08022    2.98154    1.71847
H     -4.88415    3.73288    2.49603
H     -6.09958    2.60243    1.88657
H     -4.37948    2.14599    1.85862
