40

O      0.23393    0.41557    3.19261
N      0.30800   -1.96634    0.75234
C      1.24223   -1.82629   -0.37254
H      0.72882   -1.28011   -1.17933
H      1.52357   -2.80938   -0.78873
C     -1.03625   -2.44215    0.39436
H     -1.45906   -2.95858    1.26778
H     -0.99533   -3.18260   -0.42228
C      2.46990   -1.08343    0.09814
H      2.96198   -1.65802    0.89836
H      3.20685   -0.97918   -0.71673
C     -1.90376   -1.27212   -0.01219
H     -2.93171   -1.61360   -0.22890
H     -1.51809   -0.82350   -0.94032
C      1.90628    1.23108   -0.41299
H      2.87769    1.56572   -0.81827
H      1.36929    0.74197   -1.24001
C     -2.38988    1.06188    0.49239
H     -2.72517    1.67131    1.34566
H     -3.26553    0.91977   -0.16386
C     -1.27711    1.78183   -0.23197
H     -0.93181    1.21344   -1.10973
H     -1.63213    2.75769   -0.60726
C      1.10732    2.41193    0.09058
H      1.66434    2.96253    0.86145
H      0.91721    3.12038   -0.73308
N     -0.14770    1.94009    0.68677
Fe     0.15845    0.02068    1.55728
N      2.10889    0.23463    0.65236
N     -1.91725   -0.22799    1.02635
H     -0.42102    2.55693    1.45500
H      0.72062   -2.60365    1.43801
C      3.09478    0.68389    1.64361
H      3.15988   -0.05516    2.45337
H      4.08790    0.80449    1.17777
H      2.78235    1.63891    2.08306
C     -2.69039   -0.63288    2.20680
H     -3.74976   -0.79450    1.94281
H     -2.28346   -1.56127    2.62798
H     -2.61535    0.14929    2.97320
