52

O      7.50908   23.20773    5.90208
Fe     6.39565   22.39684    4.82204
P      5.96103   20.63530    6.25008
C      5.70729   19.15746    5.19804
C      4.67380   19.46839    4.12545
P      5.18674   21.16503    3.42504
C      3.74049   22.20299    3.07052
C      4.23832   23.64340    3.17839
N      4.91974   23.83513    4.52189
C      6.05337   20.76462    1.87106
C      7.51789   20.54315    2.20148
P      8.06484   21.82581    3.39432
C      9.50117   21.18287    4.27327
C      8.69004   23.22424    2.42804
H      3.34771   22.02794    2.05805
H      2.94610   21.97411    3.79493
H      3.70397   19.69214    4.60632
H      5.89036   21.58946    1.16117
H      5.56793   19.85436    1.47199
H      8.15882   20.54573    1.30438
H      7.66442   19.57022    2.69851
H      9.59514   22.91100    1.88226
H      7.94798   23.57806    1.69857
H      8.94351   24.04098    3.12158
H     10.33383   21.02579    3.56873
H      9.78667   21.91396    5.04439
H      9.24711   20.22721    4.75128
H      3.37431   24.33237    3.15097
C      3.98585   23.65603    5.63386
H      4.51939   23.80532    6.58029
H      3.15574   24.38267    5.57472
H      3.57601   22.64151    5.62030
C      5.52876   25.16870    4.59831
H      5.96409   25.30602    5.59378
H      6.33601   25.25963    3.86246
H      4.77202   25.95193    4.41515
H      5.40628   18.28996    5.80988
H      6.67992   18.92323    4.73379
C      4.50007   20.65070    7.32435
H      3.57689   20.70040    6.73155
H      4.49125   19.73105    7.93152
H      4.53637   21.52136    7.99342
C      7.33135   20.22858    7.35108
H      7.12827   19.28780    7.88674
H      8.26165   20.14190    6.77572
H      7.45212   21.04781    8.07376
N      4.54568   18.48776    3.12211
H      3.60050   18.20106    2.89045
H      5.17382   17.69443    3.19159
N      5.09198   23.93562    2.08879
H      5.23451   24.92998    1.93592
H      5.99356   23.47887    2.20398
