19

O     -0.04006    0.18590   -2.08927
O     -0.59342   -2.14453   -0.38210
O      0.72386    1.91341    0.00688
P      2.50418   -0.51470   -0.14626
P     -2.31175    0.79305   -0.22581
O     -0.18736   -0.33056    1.77252
H     -0.74694   -2.70377    0.39454
H     -0.77527   -2.68196   -1.16747
H      0.66400    2.49160   -0.77899
H      3.24335    0.05781   -1.21332
H      3.03694   -1.82967   -0.13552
H     -2.51736    2.05685   -0.83285
H     -3.23062   -0.00556   -0.95308
H     -0.30171    0.47961    2.30837
Fe     0.01477   -0.13895   -0.39966
H      3.16296    0.06016    0.96869
H     -3.00518    0.95472    1.00076
Br     0.16314    2.95302    1.43859
Br     0.85082   -1.47029    2.81909
