30

O      7.08369   22.61817    6.54045
Fe     6.24951   22.07842    5.19858
N      5.60281   20.17870    5.81476
C      5.65954   19.13197    4.78015
C      4.67783   19.31259    3.63608
C      4.15184   21.78416    3.53988
C      4.63752   23.19963    3.21579
N      5.21678   23.73793    4.45670
C      6.01186   20.79168    1.95211
C      7.38788   20.81800    2.56521
O      7.50493   21.80145    3.62824
H      4.81644   18.43954    2.98107
H      4.34694   21.63595    4.62987
H      3.65570   19.21606    4.03913
H      5.87994   21.67546    1.30886
H      6.05592   19.94897    1.24070
H      8.11979   21.09295    1.78811
H      7.68884   19.83808    2.96895
H      5.43138   23.18196    2.45827
H      3.82509   23.83505    2.83023
H      6.70013   19.07658    4.43639
C      4.73281   20.57757    2.77265
H      3.98276   20.38913    1.98619
H      6.22087   19.90803    6.59012
H      4.66144   20.17987    6.22999
H      8.43974   22.02928    3.76216
H      5.79408   24.56923    4.29173
H      4.47509   24.03758    5.10058
Br     2.22861   21.68855    3.59435
Br     5.33638   17.43374    5.63957
