45

O     -0.43775   -3.39423    0.82773
Fe    -0.23284   -2.19987    2.01660
N      1.89739   -2.29333    2.49487
N      0.24305   -0.35257    1.10691
N     -2.24711   -1.80069    2.58154
O     -0.21485   -2.67050    4.05532
C     -0.14747   -0.35689   -0.31145
C      1.71019   -0.20160    1.23585
C      2.20360   -0.86928    2.50062
C      2.60309   -3.05807    1.45829
C     -0.40810    0.75294    1.84469
C     -1.91071    0.64591    2.02797
C     -2.37910   -0.39964    3.02282
C     -3.17034   -2.09916    1.47686
C      1.00291   -2.51238    4.77555
C      2.08444   -2.92336    3.81402
C     -1.44614   -2.62094    4.76595
C     -2.51466   -2.72013    3.70813
H     -3.06138   -3.15128    1.18754
H     -4.21072   -1.90138    1.78593
H     -2.93550   -1.47688    0.60612
H      0.16483    0.58237   -0.79837
H      0.31975   -1.21236   -0.81550
H     -1.23491   -0.45712   -0.40295
H      1.98431    0.86494    1.24597
H      2.19466   -0.64704    0.35847
H      2.39786   -2.64175    0.46601
H      3.68883   -3.03897    1.64392
H      2.23750   -4.09156    1.47939
H      1.71037   -0.42767    3.37940
H      3.08468   -2.68121    4.21308
H      2.03402   -4.01002    3.65884
H     -1.51778   -3.47337    5.46291
H     -1.49755   -1.68963    5.35597
H     -3.50834   -2.51708    4.14532
H     -2.53311   -3.74018    3.29470
H     -1.80647   -0.26355    3.95094
H     -3.43921   -0.21304    3.26747
H     -2.43142    0.55429    1.06510
H      0.05881    0.82991    2.83876
H     -0.18254    1.69289    1.31165
H      1.09180   -1.46823    5.12696
H      1.01260   -3.17092    5.66000
Br     4.07783   -0.47909    2.74309
Br    -2.47575    2.34846    2.73730
