21

O     -3.20338    1.34464    1.54175
Fe    -2.84877    1.69476   -0.07591
O     -3.46460    3.67933    0.12079
H     -3.81833    3.98065    0.97306
N     -2.60671    2.06364   -2.21640
H     -2.04428    2.90644   -2.37898
O     -0.84274    1.30524    0.04401
H     -0.21121    1.70825   -0.57094
O     -4.26342    0.26777   -0.61398
H     -4.61219   -0.04982   -1.45994
H     -4.72709   -0.21129    0.09132
H     -3.63676    4.38676   -0.51950
H     -3.51918    2.30832   -2.61727
C     -0.12638    0.73123    1.16077
H      0.69627    0.10764    0.77685
H      0.26301    1.53183    1.81021
H     -0.84056    0.10564    1.70915
C     -2.02883    0.96277   -3.01429
H     -1.97362    1.21755   -4.08507
H     -1.01619    0.73073   -2.65625
H     -2.63803    0.05473   -2.90168
