28

O     12.13091    6.73247   13.20187
Fe    13.18337    7.14603   11.95815
N     14.60440    7.64716   10.32685
F     12.13827    8.69776   10.84041
F     14.84137    8.09332   13.04005
N     13.59316    5.37571   11.29656
C     14.16030    8.87155    9.64240
H     14.49848    9.73916   10.22468
H     14.61274    8.96763    8.63809
C     12.66039    8.91789    9.53499
C     15.95882    7.79585   10.98282
H     16.63098    8.30323   10.26526
C     15.81122    8.69383   12.19620
C     14.60105    6.48874    9.43706
H     13.76815    6.59743    8.72236
H     15.53080    6.41288    8.85062
C     14.32943    5.23223   10.21102
H     12.30018    9.90401    9.20288
H     16.75220    8.74170   12.76502
H     13.29590    4.53017   11.78585
H     15.45850    9.71353   11.98130
H     12.22578    8.13475    8.89304
N     16.46460    6.50275   11.28143
H     16.30348    6.20665   12.24114
H     17.44846    6.39036   11.05287
N     14.70870    4.07273    9.70703
H     14.47461    3.18926   10.15278
H     15.27015    4.02356    8.86252
