20

O     -0.17491   -0.49968   -2.23978
P      2.30998   -0.61172   -0.20070
O     -2.19391    0.39886   -0.55317
O     -0.21866    0.42694    1.59659
H      3.12121   -0.24695   -1.30691
H      2.70488   -1.96466   -0.03723
H     -2.70794    0.30188   -1.37801
H     -1.05845    0.76643    1.96952
Fe    -0.12898   -0.09354   -0.57521
H      3.02050    0.00262    0.86232
P      0.52438    2.35353   -0.59625
H      1.61833    2.77217    0.20434
H      0.88026    2.92632   -1.84497
H     -0.46507    3.27672   -0.16604
P     -0.80127   -2.42233    0.04618
H      0.17876   -3.38694    0.38998
H     -1.73881   -2.60660    1.09386
H     -1.45545   -3.08025   -1.02617
Br    -3.37586    0.99347    0.75403
Br     0.41935   -0.77506    2.86249
