23

O     -0.24555    0.34872   -2.07393
O     -0.66144   -2.15250   -0.44866
O      0.01701    2.06933    0.08121
P      2.15934   -0.60420   -0.11108
N     -2.44744    0.19923   -0.13114
O     -0.27909   -0.18488    1.83710
H     -0.55327   -2.76981    0.28959
H     -0.62629   -2.68096   -1.25962
H      0.14473    2.70529   -0.64718
H      2.79480   -0.84074   -1.36491
H      2.54863   -1.77832    0.57697
H     -2.76850    1.11694    0.18866
H     -2.86776    0.07333   -1.05734
H     -0.81487    0.48095    2.30583
Fe    -0.30007   -0.02799   -0.38069
H      3.06539    0.34419    0.42293
H     -2.89325   -0.49573    0.47436
N      0.18310    2.64087    1.34790
H     -0.51816    3.38492    1.44585
H      1.09926    3.10464    1.36038
N      1.02195   -0.17187    2.37668
H      1.22549    0.80198    2.62763
H      0.98616   -0.71555    3.24704
