29

O     12.06364    7.22237   13.00931
Fe    13.22852    7.48539   11.81599
N     14.69693    7.74898   10.09103
N     12.09004    8.26726   10.29036
O     14.78014    8.57770   12.66463
N     13.79597    5.55519   11.38581
C     14.18028    8.86726    9.27209
H     14.52873    8.76533    8.22639
C     12.68309    8.81883    9.29960
C     15.99153    7.97617   10.71948
H     16.45694    6.99948   10.94755
H     16.71487    8.49704   10.06953
C     15.86460    8.64122   12.06814
C     14.66108    6.48273    9.35655
H     13.87124    6.51588    8.58276
H     15.59707    6.28689    8.80017
C     14.31817    5.33409   10.23874
H     12.12759    9.32902    8.49458
H     14.49244    4.31218    9.85929
H     13.53728    4.72996   11.93642
H     11.06629    8.32087   10.29920
C     14.57458   10.25616    9.76185
H     14.24255   10.43110   10.79481
H     15.65800   10.41670    9.67694
H     14.09676   11.01591    9.12434
C     17.03780    9.30644   12.65445
H     16.91855    9.44822   13.73716
H     17.96957    8.76883   12.41363
H     17.12909   10.30205   12.17769
