48

O      7.24814   23.13288    6.07725
Fe     6.37098   22.16928    4.96183
N      5.74016   20.31234    6.26012
C      5.54602   19.27630    5.20865
C      4.79812   19.76291    3.98542
N      5.25016   21.06924    3.45975
C      4.09744   21.90413    3.06704
C      4.46500   23.37042    3.06479
N      5.02743   23.78661    4.34666
C      6.19031   20.91937    2.32785
C      7.60325   20.69439    2.79062
N      8.05599   21.79334    3.65660
C      9.39738   21.54816    4.20206
C      8.00151   23.09644    3.01902
H      4.89681   18.98647    3.20914
H      3.72002   21.61836    2.07170
H      3.27948   21.73798    3.77890
H      3.72852   19.83583    4.20522
H      6.14933   21.82809    1.71061
H      5.87176   20.09316    1.67055
H      8.27133   20.61587    1.91505
H      7.70709   19.76245    3.36174
H      6.95289   23.36451    2.83901
H      8.45543   23.83431    3.69186
H     10.14133   21.70475    3.40344
H      9.58302   22.24533    5.02845
H      9.47547   20.51745    4.55952
H      5.21700   23.58922    2.29129
C      4.05793   23.77839    5.45027
H      4.59038   23.99416    6.38433
H      3.29079   24.55182    5.28229
H      3.55519   22.81016    5.52354
C      5.64956   25.11607    4.26606
H      6.22389   25.29589    5.18232
H      6.31416   25.17960    3.39637
H      4.86496   25.88137    4.15442
H      5.02732   18.39803    5.62630
H      6.55199   18.93788    4.93416
C      4.54192   20.53441    7.09974
F      3.48220   20.63241    6.29613
F      4.34353   19.54473    7.94283
F      4.67534   21.67346    7.76089
C      6.92269   19.95074    7.08421
F      6.86685   18.69978    7.49104
F      7.99374   20.09417    6.29736
F      7.03292   20.75710    8.11600
Br     2.92625   24.39595    2.52255
Br     8.86569   23.21749    1.31008
