54

O      6.50047   23.25603    6.77686
Fe     6.10596   22.42927    5.37588
N      5.72363   20.43313    6.46582
C      5.10698   19.54660    5.40444
C      5.63915   19.87338    4.01001
N      5.46916   21.32500    3.70127
C      4.04906   21.72309    3.60799
C      3.87060   23.22132    3.52708
N      4.55740   23.92985    4.64848
C      6.13318   21.71695    2.43276
C      7.49267   21.13472    2.12252
N      8.53355   21.44603    3.09478
C      9.59263   20.46154    3.25014
C      8.79193   22.80027    3.30646
H      6.72359   19.70442    4.00225
H      3.57975   21.27663    2.71537
H      3.51235   21.32938    4.47914
H      6.18793   22.81003    2.41170
H      5.47997   21.43092    1.59065
H      7.76852   21.50465    1.11968
H      7.44080   20.04407    2.04425
F      9.96311   23.07924    3.79397
F      8.52313   23.56526    2.26279
F      7.84881   23.28810    4.31314
F     10.42652   20.48095    2.22157
F     10.26091   20.65875    4.37000
F      9.01588   19.25260    3.30546
H      4.27340   23.61619    2.58905
H      2.79817   23.46314    3.52644
C      3.63010   24.09796    5.80440
F      4.15728   24.85687    6.72943
F      2.46606   24.58231    5.43265
F      3.44441   22.85860    6.29004
C      5.16825   25.22481    4.21268
F      5.99108   25.66047    5.14225
F      5.85855   24.99814    3.09978
F      4.23106   26.11592    3.97017
H      4.05729   19.85999    5.42678
C      4.89662   20.44637    7.73271
F      3.62099   20.34076    7.40420
F      5.23776   19.42342    8.49810
F      5.08800   21.56992    8.38227
C      7.14841   20.19286    6.76431
F      7.50738   18.93695    6.72090
F      7.82666   20.84811    5.76760
F      7.49849   20.73006    7.90361
C      4.99692   18.97692    2.96795
H      5.24336   19.30677    1.95016
H      5.37296   17.95060    3.06583
H      3.90203   18.94671    3.06486
C      5.12233   18.05735    5.70686
H      4.31047   17.58016    5.14203
H      6.06819   17.57766    5.42672
H      4.92794   17.85760    6.76675
