54

O      7.32342   23.49223    5.91779
Fe     6.32371   22.39490    5.01106
P      6.00319   20.55695    6.32119
C      5.86794   19.14091    5.16676
C      4.88701   19.49389    4.06295
P      5.17240   21.21893    3.49707
C      3.54370   21.95824    3.08476
C      3.80305   23.45414    2.97029
P      4.80401   23.96188    4.41078
C      6.11695   21.07007    1.93754
C      7.52439   20.63683    2.30375
P      8.06675   21.68918    3.69758
C      9.51601   20.93223    4.45413
C      8.63193   23.23815    2.95284
H      4.95232   18.80167    3.20885
H      2.94455   21.77305    3.99553
H      3.85003   19.45147    4.43328
H      6.11443   22.06241    1.45887
H      5.61903   20.36482    1.25385
H      8.22559   20.72283    1.45719
H      7.54261   19.58715    2.63802
H      9.50685   23.05457    2.30776
H      7.82005   23.67646    2.35587
H      8.89351   23.93374    3.76430
H     10.33304   20.85328    3.71867
H      9.83617   21.56857    5.29314
H      9.26939   19.92895    4.82981
H      4.37636   23.68685    2.05746
H      2.86497   24.03201    2.92424
C      3.61900   24.19033    5.77199
H      2.93218   24.99849    5.46211
H      3.02300   23.26422    5.82101
C      5.54789   25.56397    4.06390
H      6.20136   25.82754    4.90797
H      6.15977   25.49890    3.15284
H      4.76362   26.32632    3.93039
H      5.56851   18.22910    5.71003
H      6.87901   18.96691    4.76548
C      4.41400   20.58731    7.19389
H      3.60341   20.81437    6.48769
H      4.22417   19.61252    7.67229
H      4.43598   21.37170    7.96425
C      7.23116   20.08328    7.55531
H      6.98200   19.09923    7.98384
H      8.22715   20.04612    7.09310
H      7.24524   20.83726    8.35433
C      2.85924   21.33067    1.88730
H      1.85237   21.75950    1.76417
H      3.41952   21.52317    0.96048
H      2.74465   20.24310    2.01036
C      4.28909   24.48631    7.09725
H      3.53451   24.56990    7.89416
H      4.99689   23.69011    7.36258
H      4.85047   25.43132    7.06777
