36

O      7.43013   22.48516    6.50522
Fe     6.33018   21.94618    5.36486
N      5.54727   20.23679    6.13163
C      5.87549   19.32573    5.02062
C      4.87925   19.38833    3.86888
C      3.96106   21.97572    3.32742
C      4.72364   23.29256    3.50062
N      5.19104   23.54921    4.87548
C      5.91247   20.88668    2.02269
C      7.31726   20.91083    2.56391
O      7.46492   21.82635    3.68395
H      5.31062   18.66101    3.15734
H      3.43194   22.18458    2.38219
H      5.72838   21.79641    1.43015
H      5.93740   20.07278    1.27793
H      8.01301   21.24880    1.77865
H      7.64814   19.91186    2.89542
H      5.59844   23.35439    2.83900
H      4.04413   24.11173    3.20803
H      5.90100   18.28598    5.39165
H      6.91218   19.54348    4.70906
C      4.71289   20.64220    2.95468
H      3.96948   20.21873    2.26160
H      6.02505   19.97219    6.99865
H      4.54220   20.20848    6.32840
H      8.40069   22.05562    3.80371
H      5.72497   24.42265    4.93113
H      4.39466   23.67067    5.51037
C      2.87139   21.85451    4.37765
H      2.29992   22.79453    4.44878
H      2.15237   21.06535    4.12700
H      3.26357   21.63276    5.38354
C      3.56069   18.76618    4.32197
H      2.82330   18.76004    3.50659
H      3.72327   17.71998    4.62366
H      3.08949   19.27970    5.17242
