45

O     -0.40365   -3.22248    0.62230
Fe    -0.23158   -2.17136    1.94800
N      1.87681   -2.29927    2.40842
N      0.24807   -0.28841    1.12031
N     -2.25427   -1.82075    2.54709
O     -0.18656   -2.15469    4.09229
C     -0.12220   -0.22901   -0.30145
C      1.71155   -0.13542    1.28422
C      2.21649   -0.86745    2.50801
C      2.66996   -2.96300    1.36439
C     -0.45273    0.75444    1.90201
C     -1.95521    0.61403    2.03803
C     -2.39146   -0.44279    3.02988
C     -3.17195   -2.14885    1.44510
C      1.05903   -2.38323    4.72712
C      1.92666   -3.03760    3.67604
C     -1.39923   -2.54729    4.74211
C     -2.39896   -2.80403    3.63952
H     -2.99605   -3.18608    1.13824
H     -4.21464   -2.02027    1.77324
H     -2.98000   -1.49610    0.58667
H      0.16684    0.74495   -0.73151
H      0.37688   -1.04204   -0.84278
H     -1.20439   -0.35985   -0.41361
H      1.97500    0.93344    1.35416
H      2.19620   -0.51560    0.37663
H      2.46726   -2.50179    0.39243
H      3.74569   -2.88486    1.59519
H      2.38075   -4.01731    1.30716
H      1.74729   -0.44961    3.40812
H      3.30657   -0.72477    2.61106
H      2.96183   -3.19150    4.02997
H     -1.24023   -3.47137    5.31984
H     -1.71597   -1.74852    5.43392
H     -3.42621   -2.77740    4.04242
H     -2.23245   -3.79904    3.19692
H     -1.76012   -0.34927    3.92350
H     -2.31491    1.57309    2.44000
H     -2.46593    0.50108    1.07237
H      0.00019    0.77811    2.90563
H     -0.22883    1.72800    1.42964
H      1.47914   -1.43216    5.09560
H      0.95528   -3.06242    5.58656
Cl     1.21433   -4.64836    3.38114
Cl    -4.05020   -0.14087    3.59351
