45

O     -0.34828   -3.13943    0.55077
Fe    -0.21147   -2.17663    1.95067
N      1.89768   -2.30577    2.42436
N      0.30010   -0.29063    1.14339
N     -2.24842   -1.84865    2.56029
O     -0.14610   -2.03210    4.12978
C     -0.02872   -0.21264   -0.28767
C      1.75731   -0.12549    1.34017
C      2.24564   -0.87810    2.55576
C      2.70207   -2.96133    1.38607
C     -0.43453    0.73325    1.92286
C     -1.94193    0.58386    1.96454
C     -2.48224   -0.43940    2.93671
C     -3.13211   -2.26510    1.46076
C      1.08748   -2.37743    4.73918
C      1.89305   -3.06963    3.66904
C     -1.35720   -2.41091    4.78564
C     -2.35442   -2.75658    3.69728
H     -2.94659   -3.31924    1.22213
H     -4.18480   -2.13351    1.75740
H     -2.92230   -1.66284    0.56995
H      0.24696    0.77792   -0.68759
H      0.51049   -1.00016   -0.82743
H     -1.10165   -0.37283   -0.44008
H      2.00663    0.94431    1.44024
H      2.26436   -0.47897    0.43408
H      2.54800   -2.46343    0.42355
H      3.77132   -2.92961    1.65455
H      2.37847   -4.00295    1.28311
H      1.76488   -0.47222    3.45416
H      3.33497   -0.74454    2.67550
H      2.90590   -3.34342    4.01281
H     -1.19673   -3.30109    5.41214
H     -1.70588   -1.58521    5.42616
H     -2.16574   -3.77273    3.31600
H     -2.02442   -0.27066    3.91971
H     -3.56900   -0.30468    3.06654
H     -2.33624    1.55630    2.30111
H     -2.36427    0.45458    0.95771
H     -0.03499    0.72036    2.94909
H     -0.17742    1.71726    1.49052
H      1.58725   -1.46979    5.11858
H      0.94134   -3.05711    5.59181
Br     0.95605   -4.74749    3.30445
Br    -4.10529   -2.81764    4.50442
