28

O     12.74477    7.42481   13.19034
Fe    13.42282    7.45923   11.61601
O     14.51374    7.48298    9.76018
O     12.26893    8.96195   10.81229
O     15.38585    7.52816   12.36490
N     12.70230    5.54202   11.24714
C     12.90177    4.72348   10.28705
H     12.44720    3.71775   10.27393
H     15.39692    7.16243   13.26464
H     12.09996    5.18514   11.99818
H     15.43396    7.18174    9.76858
H     13.54393    5.01675    9.44471
C     12.83326   10.26435   10.62977
H     13.88753   10.13079   10.35316
H     12.30368   10.77912    9.81147
H     12.74794   10.85295   11.55915
C     16.25942    8.67059   12.32246
H     17.27617    8.36503   12.61868
H     16.27954    9.02810   11.28422
H     15.89533    9.47018   12.98972
C     10.86985    8.97803   11.12613
H     10.32743    9.48191   10.30963
H     10.53629    7.93452   11.20238
H     10.69779    9.50456   12.07881
C     14.12478    7.81868    8.41948
H     14.68177    8.70173    8.06576
H     14.30505    6.96963    7.74002
H     13.05174    8.04717    8.44406
