28

O     11.86180    7.61871   12.87321
Fe    13.09412    7.70726   11.78237
N     14.64739    7.78568   10.15802
N     12.13767    8.76628   10.35870
O     14.58907    8.84261   12.64160
O     13.79001    5.70820   11.61020
C     14.27448    8.90717    9.29222
H     14.80435    9.82091    9.62212
H     14.58803    8.77045    8.24267
C     12.82729    9.23375    9.38670
C     15.91347    8.02702   10.85374
H     16.35062    7.06811   11.18767
H     16.67897    8.48564   10.20265
C     15.71619    8.82016   12.12561
C     14.63049    6.45762    9.50687
H     15.59898    6.25198    9.01136
C     14.37824    5.42592   10.57106
H     12.38884    9.91547    8.63733
H     14.67015    4.37106   10.37533
H     11.15437    9.05106   10.42016
C     13.51630    6.24601    8.48466
H     13.65743    6.88960    7.60500
H     13.54830    5.20829    8.11681
H     12.52287    6.41919    8.92190
C     16.86338    9.50989   12.73135
H     16.66650    9.76769   13.78102
H     17.79016    8.92222   12.62152
H     17.03208   10.44669   12.16308
