18

O      0.70660   -0.32993   -2.04172
O     -0.21958   -2.17743   -0.13839
O      0.50215    1.98210   -0.26944
N      2.35149   -0.41820    0.20845
O     -1.79242    0.44403   -0.59902
O     -0.29514    0.13330    1.70439
H     -0.83103   -2.52770    0.52678
H     -0.30573   -2.74581   -0.91986
H      0.48802    2.44043    0.59141
H      2.96214   -0.05122   -0.52870
H      2.58985   -1.41179    0.29777
H     -1.91339    1.32393   -1.00396
H      0.09858   -0.13105    2.54924
H     -1.22563    0.32921    1.89452
Fe     0.32832   -0.15881   -0.40158
H      2.64662    0.03175    1.07972
Br     1.46454    3.06938   -1.42304
Br    -3.02640   -0.64643   -1.45802
