16

O     -3.30971    1.29734    1.84157
Fe    -2.91091    1.66708    0.23008
O     -4.01046    3.44803    0.25798
H     -4.07574    4.19296   -0.35947
N     -2.37817    2.17794   -1.85097
H     -1.80791    3.02565   -1.95397
H     -1.84113    1.44785   -2.33286
O     -0.86507    1.36607    0.55469
H     -0.54733    1.09155    1.42973
H     -0.07853    1.54732    0.01715
N     -3.98736   -0.04958   -0.40037
H     -3.60452   -0.88443    0.05893
H     -4.95737    0.01100   -0.06885
H     -4.49700    3.70513    1.05748
H     -4.03403   -0.26304   -1.40175
H     -3.18947    2.33957   -2.45870
