20

O     12.52641    7.47726   13.21610
Fe    13.44365    7.57659   11.76377
O     14.65445    7.71000    9.84925
N     12.32726    9.17378   10.98326
N     15.28679    7.78181   12.74989
N     12.82668    5.64985   11.25842
C     12.66658   10.22721   10.34486
C     16.29799    8.53025   12.52660
C     13.06966    4.87794   10.27057
H     11.94677   11.02944   10.10675
H     12.63182    3.86762   10.19505
H     17.15032    8.59359   13.22512
H     15.33681    7.26736   13.63791
H     12.19745    5.25166   11.96572
H     11.33906    9.15593   11.26411
H     14.30074    7.88206    8.96410
H     15.52876    7.32044    9.70090
H     13.73408    5.21773    9.46325
H     13.70929   10.35366   10.01522
H     16.33446    9.13959   11.61042
