29

O     -2.54527    2.14153    2.29625
Fe    -2.33679    2.19947   -0.31095
N     -3.59029    3.86478   -0.62214
O     -1.93534    1.69862   -2.01175
N     -0.24735    2.49220   -0.23348
O     -3.60283    0.55096   -0.36318
C     -4.83851    3.64261    0.12579
H     -5.50742    4.51163    0.00424
H     -5.34359    2.74650   -0.26006
H     -4.60617    3.50404    1.18853
C     -2.84332    5.00752   -0.07522
H     -1.91358    5.15495   -0.64399
H     -3.44651    5.92900   -0.15199
H     -2.60934    4.81843    0.98085
C     -3.87656    4.05850   -2.04863
H     -4.41838    3.18504   -2.44016
H     -4.51755    4.94631   -2.18968
H     -2.94216    4.21884   -2.60448
H     -1.31125    1.00478   -2.27108
H     -2.51814    1.81556   -2.77573
H      0.15852    2.28501    0.68657
H     -3.84045    0.34573    0.55515
C      0.58547    2.98301   -1.06923
H      1.64564    3.15267   -0.81319
H      0.24570    3.24813   -2.08165
C     -3.78100   -0.60994   -1.18738
H     -3.04181   -1.38823   -0.93284
H     -4.80248   -1.00095   -1.05268
H     -3.65228   -0.29650   -2.23035
