23

O      0.43373    0.02057   -2.55960
O     -0.34171   -2.14590   -0.36927
O      0.07797    2.13762   -0.25050
P      2.16312   -0.05792    0.64609
N     -2.39195    0.33337   -0.21564
O     -0.50235   -0.00774    1.78455
H     -0.29125   -2.72988    0.40104
H     -0.04963   -2.67424   -1.12796
H      0.21245    2.33993    0.69112
H      3.04769    0.02247   -0.46070
H      2.62309   -1.25376    1.25296
H     -2.81281    0.98771    0.45011
H     -2.57036    0.74195   -1.13841
H     -1.32007   -0.07150    2.31196
Fe    -0.25732   -0.02349   -0.05770
H      2.69968    0.92956    1.50138
H     -2.95775   -0.52037   -0.17840
N      0.63723   -0.17022    2.58810
H      0.63611    0.57358    3.29585
H      0.55295   -1.05986    3.09300
N      1.30087    2.56617   -0.86762
H      1.15845    3.56836   -1.05404
H      1.24400    2.10899   -1.78554
