37

O      0.74111    0.32701    2.96521
N      0.34637   -1.93567    1.08987
C      1.25120   -1.88396   -0.07341
H      0.69613   -1.44001   -0.91455
H      1.54476   -2.90444   -0.37812
C     -1.01447   -2.39359    0.74801
H     -1.48899   -2.65933    1.70403
H     -0.98069   -3.30058    0.11871
C      2.46147   -1.04217    0.25716
H      3.05462   -1.52073    1.05090
H      3.12257   -0.95243   -0.62081
C     -1.80596   -1.30982    0.06697
H     -2.85564   -1.62868   -0.04806
H     -1.41269   -1.05074   -0.93250
C      1.89317    1.33184   -0.26093
H      2.87756    1.65233   -0.64514
H      1.33360    0.92902   -1.11890
C     -2.29800    1.06027    0.44457
H     -2.78021    1.54107    1.30766
H     -3.05544    0.86120   -0.32860
C     -1.16841    1.90539   -0.09100
H     -0.72001    1.43794   -0.97962
H     -1.53403    2.90362   -0.39627
C      1.17144    2.50220    0.36836
H      1.76096    2.89839    1.20979
H      1.02151    3.32404   -0.35285
N     -0.11389    2.03970    0.92763
Fe     0.15258    0.09177    1.78068
N      2.03021    0.27452    0.74124
O     -1.74040   -0.16976    0.92671
H      2.65885    0.59387    1.48109
N      0.81225   -2.66792    2.19572
H      1.64181   -2.21928    2.58073
H      1.05662   -3.62449    1.91741
N     -0.61999    2.73830    2.03244
H     -0.83991    3.70991    1.78651
H      0.07687    2.72869    2.77791
