24

O     -0.26506    0.74897   -3.16270
N      2.28080    0.24290   -0.60284
H      2.55123    0.24837   -1.59085
H      2.67571   -0.60586   -0.18691
Fe     0.15612    0.24413   -0.50546
H      2.75608    1.02701   -0.14963
P      0.27629    3.03788   -0.55478
H      1.11728    3.57301   -1.56651
H     -0.87528    3.83357   -0.80306
H      0.79082    3.72520    0.58078
P     -0.20068   -2.18094   -1.32815
H     -0.75509   -2.53322   -2.58381
H      0.94590   -3.01171   -1.28481
H     -1.05685   -2.89094   -0.44426
P     -2.11123    0.66311   -0.10503
H     -2.72247    1.49994   -1.08453
H     -2.89326   -0.51506   -0.20743
P      0.17778   -0.26979    1.83561
H      0.20889    0.76512    2.80763
H     -0.90645   -1.04213    2.32436
N     -2.42074    1.15007    1.47743
H     -2.08744    2.08279    1.71977
H     -3.37331    1.01895    1.82688
Br     1.89418   -1.49343    2.36955
