18

O      0.75273   -0.09590   -2.34825
O     -0.33670   -2.07562    0.06873
O      0.39538    2.07581    0.11422
N      2.23218   -0.39149    0.41334
O     -1.87800    0.34074   -0.54394
O     -0.33312    0.05252    1.71435
H     -0.56016   -2.49528    0.91960
H      0.31613    2.53151    0.97211
H      2.82736    0.34438    0.01904
H      2.55014   -1.26103   -0.02713
H     -2.16696    1.17628   -0.94383
H     -2.43112   -0.34195   -0.95570
H      0.09815   -0.02801    2.57767
H     -1.27174    0.21562    1.89506
Fe     0.20600   -0.02731   -0.14334
H      2.47702   -0.46229    1.40488
Br     1.20490    3.27576   -1.04355
Br     0.06616   -3.45453   -1.10295
