19

O      0.60577   -0.16414   -1.66821
O      0.02697   -2.17452   -0.37346
O      0.58988    2.01343   -0.47083
P      2.79729   -0.42173   -0.19329
P     -2.22553    0.28254   -0.92454
O     -0.19929    0.04417    1.85116
H     -0.54741   -2.58569    0.28991
H     -0.07574   -2.69736   -1.18410
H      0.73571    2.46265    0.37570
H      1.22792    2.40121   -1.09223
H      3.34776   -1.48877   -0.95272
H     -2.38730    1.24743   -1.95659
H      0.37968   -0.22737    2.57891
H     -1.02912    0.31306    2.27257
Fe     0.32145   -0.08781   -0.62826
H      3.39478   -0.69192    1.07203
H     -3.31886    0.66526   -0.09332
Br    -2.95938   -1.53617   -1.85346
Br     3.90860    1.30561   -0.87743
