18

H 0.000000 0.000000 0.000000
H 0.000000 0.000000 2.830303
H 0.000000 0.000000 5.660606
H 0.000000 0.000000 8.490909
H 0.000000 0.000000 11.321212
H 0.000000 0.000000 14.151515
H 0.000000 0.000000 16.981818
H 0.000000 0.000000 19.812121
H 0.000000 0.000000 22.642424
H 0.000000 0.000000 25.472727
H 0.000000 0.000000 28.303030
H 0.000000 0.000000 31.133333
H 0.000000 0.000000 33.963636
H 0.000000 0.000000 36.793939
H 0.000000 0.000000 39.624242
H 0.000000 0.000000 42.454545
H 0.000000 0.000000 45.284848
H 0.000000 0.000000 48.115152
