45

O     -0.33379   -3.03745    0.69905
Fe    -0.22596   -2.27861    1.80239
N      1.88319   -2.40775    2.27608
N      0.28561   -0.39261    0.99511
N     -2.26291   -1.95063    2.41201
O     -0.16059   -2.13408    3.98150
C     -0.04321   -0.31462   -0.43595
C      1.74282   -0.22747    1.19189
C      2.23115   -0.98008    2.40748
C      2.68758   -3.06331    1.23779
C     -0.44902    0.63127    1.77458
C     -1.95642    0.48188    1.81626
C     -2.49673   -0.54138    2.78843
C     -3.14660   -2.36708    1.31248
C      1.07299   -2.47941    4.59090
C      1.87856   -3.17161    3.52076
C     -1.37169   -2.51289    4.63736
C     -2.36891   -2.85856    3.54900
H     -2.96108   -3.42122    1.07385
H     -4.19929   -2.23549    1.60912
H     -2.93679   -1.76482    0.42167
H      0.23247    0.67594   -0.83587
H      0.49600   -1.10214   -0.97571
H     -1.11614   -0.47481   -0.58836
H      1.99214    0.84233    1.29196
H      2.24987   -0.58095    0.28580
H      2.53351   -2.56541    0.27527
H      3.75683   -3.03159    1.50627
H      2.36398   -4.10493    1.13483
H      1.75039   -0.57420    3.30588
H      3.32048   -0.84652    2.52722
H      2.89141   -3.44540    3.86453
H     -1.21122   -3.40307    5.26386
H     -1.72037   -1.68719    5.27788
H     -2.18023   -3.87471    3.16772
H     -2.03891   -0.37264    3.77143
H     -3.58349   -0.40666    2.91826
H     -2.35073    1.45432    2.15283
H     -2.37876    0.35260    0.80943
H     -0.04948    0.61838    2.80081
H     -0.19191    1.61528    1.34224
H      1.57276   -1.57177    4.97030
H      0.92685   -3.15909    5.44353
Br     0.94156   -4.84947    3.15617
Br    -4.11978   -2.91962    4.35614
