18

H 0.000000 0.000000 0.000000
H 0.000000 0.000000 2.030303
H 0.000000 0.000000 4.060606
H 0.000000 0.000000 6.090909
H 0.000000 0.000000 8.121212
H 0.000000 0.000000 10.151515
H 0.000000 0.000000 12.181818
H 0.000000 0.000000 14.212121
H 0.000000 0.000000 16.242424
H 0.000000 0.000000 18.272727
H 0.000000 0.000000 20.303030
H 0.000000 0.000000 22.333333
H 0.000000 0.000000 24.363636
H 0.000000 0.000000 26.393939
H 0.000000 0.000000 28.424242
H 0.000000 0.000000 30.454545
H 0.000000 0.000000 32.484848
H 0.000000 0.000000 34.515152
