23

O      0.28370   -0.50777   -2.03284
O     -0.57313   -2.20190    0.06708
O      0.18933    2.08207   -0.28257
P      2.30972   -0.55754    0.05634
N     -2.26329    0.28188   -0.62719
O     -0.47882    0.27163    1.69224
H     -1.01632   -2.61179    0.82412
H     -0.45049   -2.89120   -0.60276
H      3.16724    0.33118   -0.64201
H      2.77127   -1.79303   -0.46383
H     -2.44808    1.01630   -1.31576
H     -2.77674   -0.54082   -0.95698
H     -0.05123   -0.17854    2.43422
H     -0.23636    1.24145    1.77340
Fe    -0.16493   -0.16483   -0.37912
H      2.94239   -0.56589    1.32942
H     -2.71397    0.56988    0.24612
N      0.24389    2.71179    0.98275
H      1.19077    3.09130    1.11489
H     -0.41483    3.50186    0.97497
N      0.49817    2.81617   -1.41346
H     -0.13512    3.62353   -1.46170
H      1.46051    3.16516   -1.32741
