23

O     11.58062    6.93535   13.46264
Fe    13.49917    7.50337   11.39287
N     15.04189    7.83011    9.70410
N     12.41972    8.47869    9.95340
O     14.93312    8.91830   12.17091
N     14.21687    5.64348   11.02052
C     14.52717    8.94338    8.90187
H     14.97493    9.89592    9.24332
H     14.83381    8.86961    7.84307
C     13.05253    9.08100    9.01703
C     16.28518    8.11032   10.39004
H     16.71117    7.15629   10.75813
C     16.03373    8.92788   11.63801
C     15.08861    6.56380    8.97588
H     14.30095    6.54738    8.20322
H     16.04799    6.42761    8.44594
C     14.80780    5.41351    9.89863
H     12.53842    9.73727    8.29329
H     16.87906    9.49936   12.07899
H     14.00194    4.82847   11.60366
H     11.40790    8.64081    9.99471
Br    17.65833    8.90535    9.29603
Br    15.28215    3.74648    9.31182
