53

O      5.83278   23.22693    7.48880
Fe     6.44083   22.35561    5.23140
P      6.10337   20.20343    5.75937
C      5.86787   18.91996    4.48426
C      4.80072   19.09582    3.40731
C      4.29375   21.56731    3.36606
C      4.52747   22.96853    2.80370
P      5.15953   23.91217    4.22608
C      5.98885   20.56123    1.65958
C      7.37203   20.64415    2.27670
P      7.74552   21.99359    3.44031
C      9.35246   21.51273    4.13901
C      8.17831   23.39921    2.37699
H      4.89653   18.23171    2.73028
H      5.05524   21.53621    4.26929
H      3.81927   18.96193    3.88811
H      5.82499   21.42728    0.99911
H      6.01416   19.70155    0.96951
H      8.12150   20.75577    1.47378
H      7.63870   19.71650    2.79707
H      9.01072   23.10805    1.71655
H      7.32721   23.70429    1.75375
H      8.49737   24.24827    2.99896
H     10.08323   21.33580    3.33298
H      9.73044   22.31705    4.78956
H      9.23540   20.59680    4.73494
H      5.31859   22.95726    2.04367
H      3.62747   23.40324    2.33881
C      3.75105   24.21458    5.31167
H      4.11483   24.77370    6.18641
H      2.97856   24.79844    4.78578
H      3.33886   23.25929    5.66213
C      5.69801   25.54951    3.69891
H      6.10228   26.08249    4.57412
H      6.46811   25.49590    2.92063
H      4.82647   26.10614    3.31669
H      5.60766   18.02127    5.07262
H      6.85977   18.70129    4.06531
C      4.43694   20.26260    6.65839
H      3.74366   20.73282    5.93945
H      4.15644   19.19753    6.74968
C      7.22220   19.45164    6.96279
H      6.83500   18.46347    7.26100
H      8.23245   19.33386    6.54562
H      7.27625   20.10883    7.84088
C      4.76344   20.36067    2.54325
H      3.93813   20.19678    1.82581
N      4.42184   20.90691    7.89867
H      4.66289   21.89821    7.85534
H      4.89874   20.42579    8.65532
N      2.99756   21.41072    3.88087
H      2.36044   22.18914    3.76296
H      2.54476   20.51811    3.71970
