18

O      0.68226   -0.08706   -2.06406
O     -0.26623   -2.08446   -0.21546
O      0.46585    2.06697   -0.16997
N      2.30265   -0.40033    0.12915
O     -1.87800    0.34074   -0.54394
O     -0.33312    0.05252    1.71435
H     -0.48969   -2.50412    0.63541
H      0.38660    2.52267    0.68792
H      2.89783    0.33554   -0.26515
H      2.62061   -1.26987   -0.31132
H     -2.16696    1.17628   -0.94383
H     -2.43112   -0.34195   -0.95570
H      0.09815   -0.02801    2.57767
H     -1.27174    0.21562    1.89506
Fe     0.27647   -0.03615   -0.42753
H      2.54749   -0.47113    1.12069
Br     1.27537    3.26692   -1.32774
Br     0.13663   -3.46337   -1.38714
