52

O      7.37958   23.07765    5.97338
Fe     6.36971   22.18065    4.99701
N      6.02203   20.45076    6.11767
C      5.76618   19.27667    5.25092
C      4.69543   19.55327    4.21092
P      5.10555   21.17190    3.51339
C      3.71183   22.25384    3.12282
C      4.28851   23.64725    3.28475
N      5.03324   23.81193    4.55695
C      6.14211   20.88899    1.99015
C      7.55677   20.71287    2.53104
N      7.91285   21.69517    3.56522
C      9.15476   21.29358    4.23613
C      8.08837   23.02738    2.97725
H      4.67357   18.79294    3.41369
H      3.34036   22.08090    2.09934
H      2.87908   22.05101    3.81348
H      3.68461   19.59212    4.64505
H      6.06812   21.83952    1.43627
H      8.28636   20.75721    1.70216
H      7.64110   19.71098    2.97783
H      8.88530   23.01422    2.21260
H      7.15428   23.35404    2.50347
H      8.36350   23.73255    3.77223
H      9.99786   21.30821    3.52407
H      9.35347   21.98665    5.06332
H      9.04872   20.27332    4.62430
H      4.99701   23.85560    2.46905
H      3.49780   24.41610    3.22099
C      4.10822   23.81300    5.69693
H      4.68198   23.91783    6.62604
H      3.40259   24.65847    5.61896
H      3.53371   22.88105    5.72494
C      5.74677   25.09913    4.53288
H      6.33825   25.20111    5.44955
H      6.42027   25.13930    3.67008
H      5.02178   25.92710    4.45607
H      5.47820   18.43259    5.90130
H      6.71829   19.01272    4.77136
C      4.80481   20.70815    6.98717
H      4.00085   20.99364    6.29510
H      5.07561   21.59537    7.57898
C      7.16176   20.15598    6.99883
H      6.93824   19.26232    7.60303
H      8.05884   19.96795    6.40096
H      7.34865   21.01416    7.65377
N      5.63239   19.82962    1.19925
H      5.54764   20.03921    0.20927
H      6.10708   18.94043    1.32574
N      4.45296   19.59247    7.76150
H      3.52846   19.20951    7.60364
H      4.66284   19.64677    8.75182
