17

O      0.00000    0.00000    1.32020
Fe     0.00000    0.00000    0.27980
O     -0.02532   -2.04942    0.23803
O      0.01885    2.04941    0.23431
O     -2.09136   -0.00340    0.08950
O      2.09172    0.00000    0.09355
O      0.00000    0.00000   -1.77020
H      0.26040   -2.63210   -0.48759
H      0.04961   -2.57039    1.05817
H     -0.25655    2.63228   -0.49507
H     -0.05040    2.57471    1.05212
H     -2.58023    0.46315    0.79377
H     -2.52460   -0.87680    0.05173
H      2.52747    0.87055    0.02900
H      2.57839   -0.44571    0.81272
H     -0.77522    0.08407   -2.35083
H      0.77001   -0.10212   -2.35479
