53

O      5.83771   23.21988    7.47052
Fe     6.43590   22.36266    5.24968
P      6.09844   20.21048    5.77765
C      5.86294   18.92701    4.50254
C      4.79579   19.10287    3.42559
C      4.28882   21.57436    3.38434
C      4.52254   22.97558    2.82198
P      5.15460   23.91922    4.24436
C      5.98392   20.56828    1.67786
C      7.36710   20.65120    2.29498
P      7.74059   22.00064    3.45859
C      9.34753   21.51978    4.15729
C      8.17338   23.40626    2.39527
H      4.89160   18.23876    2.74856
H      5.05031   21.54326    4.28757
H      3.81434   18.96898    3.90639
H      5.82006   21.43433    1.01739
H      6.00923   19.70860    0.98779
H      8.11657   20.76282    1.49206
H      7.63377   19.72355    2.81535
H      9.00579   23.11510    1.73483
H      7.32228   23.71134    1.77203
H      8.49244   24.25532    3.01724
H     10.07830   21.34285    3.35126
H      9.72551   22.32410    4.80784
H      9.23047   20.60385    4.75322
H      5.31366   22.96431    2.06195
H      3.62254   23.41029    2.35709
C      3.74612   24.22163    5.32995
H      4.10990   24.78075    6.20469
H      2.97363   24.80549    4.80406
H      3.33393   23.26634    5.68041
C      5.69308   25.55656    3.71719
H      6.09735   26.08954    4.59240
H      6.46318   25.50295    2.93891
H      4.82154   26.11319    3.33497
H      5.60273   18.02832    5.09090
H      6.85484   18.70834    4.08359
C      4.43201   20.26965    6.67667
H      3.73873   20.73987    5.95773
H      4.15151   19.20458    6.76796
C      7.21727   19.45869    6.98107
H      6.83007   18.47052    7.27928
H      8.22752   19.34091    6.56390
H      7.27132   20.11588    7.85916
C      4.75851   20.36772    2.56153
H      3.93320   20.20383    1.84409
N      4.41691   20.91396    7.91695
H      4.65796   21.90526    7.87362
H      4.89381   20.43284    8.67360
N      2.99263   21.41777    3.89915
H      2.35551   22.19619    3.78124
H      2.53983   20.52516    3.73798
