23

O      0.46567   -0.12617   -2.67060
O     -0.52170   -2.07818   -0.23040
O      0.08708    2.13902   -0.31843
P      2.00740   -0.27052    0.60756
N     -2.56222    0.37946   -0.18338
O     -0.64925    0.13074    1.73012
H     -0.44904   -2.37325    0.69366
H      0.25540    2.43204    0.59357
H      2.86352    0.67872   -0.00155
H      2.52171   -1.49982    0.12704
H     -2.91494    1.26831    0.18482
H     -2.79337    0.39443   -1.18182
H      0.00201    0.06919    2.44469
H     -1.49736    0.26955    2.17863
Fe    -0.42859    0.06699    0.03764
H      2.52273   -0.27227    1.93208
H     -3.15514   -0.35470    0.21607
N      1.16517    2.69351   -1.07327
H      0.81768    3.60816   -1.39149
H      1.18033    2.09519   -1.90674
N      0.34449   -2.95293   -0.95283
H      0.52376   -2.42326   -1.81327
H     -0.25295   -3.74360   -1.22961
