23

O     12.13262    7.09878   12.86713
Fe    12.94717    7.33994   11.98838
N     14.48989    7.66668   10.29961
N     11.86772    8.31526   10.54891
O     14.38112    8.75487   12.76642
N     13.66487    5.48005   11.61603
C     13.97517    8.77995    9.49738
H     14.42293    9.73249    9.83883
H     14.28181    8.70618    8.43858
C     12.50053    8.91757    9.61254
C     15.73318    7.94689   10.98555
H     16.15917    6.99286   11.35364
C     15.48173    8.76445   12.23352
C     14.53661    6.40037    9.57139
H     13.74895    6.38395    8.79873
H     15.49599    6.26418    9.04145
C     14.25580    5.25008   10.49414
H     11.98642    9.57384    8.88880
H     16.32706    9.33593   12.67450
H     13.44994    4.66504   12.19917
H     10.85590    8.47738   10.59022
Br    17.10633    8.74192    9.89154
Br    14.73015    3.58305    9.90733
