22

O      0.43483   -0.24552   -2.24231
O     -0.66709   -2.13712   -0.38183
O     -0.22442    1.86095   -0.04072
P      2.18154   -0.57418    0.03023
O     -2.35339    0.11938   -0.75358
O     -0.76755   -0.13725    1.74867
H     -0.72924   -2.43266    0.54358
H     -0.70230    1.92407    0.87256
H      0.17650    2.69465   -0.32043
H      3.10445    0.30722   -0.58542
H      2.61814   -1.83864   -0.43441
H     -2.71514    0.87660   -1.24004
H     -2.86977   -0.64808   -1.04523
H      0.06134   -0.08743    2.25404
Fe    -0.18200   -0.07381   -0.61637
H      2.67640   -0.59173    1.36258
N      0.19404   -3.08776   -1.01502
H     -0.43151   -3.85283   -1.30283
H      0.44633   -2.60182   -1.88377
N     -1.42320    1.10119    2.01296
H     -2.39675    0.90660    1.75224
H     -1.43649    1.24044    3.03273
