17

O      0.00000    0.00000    2.24949
Fe     0.00000    0.00000   -0.64949
O     -0.02532   -2.04942   -0.69126
O      0.01885    2.04941   -0.69498
O     -2.09136   -0.00340   -0.83979
O      2.09172    0.00000   -0.83574
O      0.00000    0.00000   -2.69949
H      0.26040   -2.63210   -1.41688
H      0.04961   -2.57039    0.12888
H     -0.25655    2.63228   -1.42436
H     -0.05040    2.57471    0.12283
H     -2.58023    0.46315   -0.13553
H     -2.52460   -0.87680   -0.87757
H      2.52747    0.87055   -0.90029
H      2.57839   -0.44571   -0.11657
H     -0.77522    0.08407   -3.28012
H      0.77001   -0.10212   -3.28408
