23

O      0.36409   -0.56922   -2.32917
O     -0.65352   -2.14045    0.36341
O      0.18933    2.08207   -0.28257
P      2.30972   -0.55754    0.05634
N     -2.34368    0.34333   -0.33086
O     -0.47882    0.27163    1.69224
H     -1.09671   -2.55034    1.12045
H     -0.53088   -2.82975   -0.30643
H      3.16724    0.33118   -0.64201
H      2.77127   -1.79303   -0.46383
H     -2.52847    1.07775   -1.01943
H     -2.85713   -0.47937   -0.66065
H     -0.05123   -0.17854    2.43422
H     -0.23636    1.24145    1.77340
Fe    -0.24532   -0.10338   -0.08279
H      2.94239   -0.56589    1.32942
H     -2.79436    0.63133    0.54245
N      0.24389    2.71179    0.98275
H      1.19077    3.09130    1.11489
H     -0.41483    3.50186    0.97497
N      0.49817    2.81617   -1.41346
H     -0.13512    3.62353   -1.46170
H      1.46051    3.16516   -1.32741
