17

O      0.00000    0.00000    1.35051
Fe     0.00000    0.00000    0.24949
O     -0.02532   -2.04942    0.20773
O      0.01885    2.04941    0.20401
O     -2.09136   -0.00340    0.05920
O      2.09172    0.00000    0.06325
O      0.00000    0.00000   -1.80051
H      0.26040   -2.63210   -0.51789
H      0.04961   -2.57039    1.02787
H     -0.25655    2.63228   -0.52537
H     -0.05040    2.57471    1.02182
H     -2.58023    0.46315    0.76346
H     -2.52460   -0.87680    0.02142
H      2.52747    0.87055   -0.00130
H      2.57839   -0.44571    0.78242
H     -0.77522    0.08407   -2.38113
H      0.77001   -0.10212   -2.38509
