29

O     12.25926    7.26654   12.80891
Fe    13.03290    7.44122   12.01639
N     14.50131    7.70481   10.29143
N     11.89442    8.22309   10.49076
O     14.58452    8.53353   12.86503
N     13.60035    5.51102   11.58621
C     13.98466    8.82309    9.47249
H     14.33311    8.72116    8.42679
C     12.48747    8.77466    9.50000
C     15.79591    7.93200   10.91988
H     16.26132    6.95531   11.14795
H     16.51925    8.45287   10.26993
C     15.66898    8.59705   12.26854
C     14.46546    6.43856    9.55695
H     13.67562    6.47171    8.78316
H     15.40145    6.24272    9.00057
C     14.12255    5.28992   10.43914
H     11.93197    9.28485    8.69498
H     14.29682    4.26801   10.05969
H     13.34166    4.68579   12.13682
H     10.87067    8.27670   10.49960
C     14.37896   10.21199    9.96225
H     14.04693   10.38693   10.99521
H     15.46238   10.37253    9.87734
H     13.90114   10.97174    9.32474
C     16.84218    9.26227   12.85485
H     16.72293    9.40405   13.93756
H     17.77395    8.72466   12.61403
H     16.93347   10.25788   12.37809
