23

O      0.44448   -0.63068   -2.62550
O     -0.73391   -2.07899    0.65974
O      0.18933    2.08207   -0.28257
P      2.30972   -0.55754    0.05634
N     -2.42407    0.40479   -0.03453
O     -0.47882    0.27163    1.69224
H     -1.17710   -2.48888    1.41678
H     -0.61127   -2.76829   -0.01010
H      3.16724    0.33118   -0.64201
H      2.77127   -1.79303   -0.46383
H     -2.60886    1.13921   -0.72310
H     -2.93752   -0.41791   -0.36432
H     -0.05123   -0.17854    2.43422
H     -0.23636    1.24145    1.77340
Fe    -0.32571   -0.04192    0.21354
H      2.94239   -0.56589    1.32942
H     -2.87475    0.69279    0.83878
N      0.24389    2.71179    0.98275
H      1.19077    3.09130    1.11489
H     -0.41483    3.50186    0.97497
N      0.49817    2.81617   -1.41346
H     -0.13512    3.62353   -1.46170
H      1.46051    3.16516   -1.32741
