17

O      0.00000    0.00000    1.85556
Fe     0.00000    0.00000   -0.25556
O     -0.02532   -2.04942   -0.29732
O      0.01885    2.04941   -0.30104
O     -2.09136   -0.00340   -0.44585
O      2.09172    0.00000   -0.44180
O      0.00000    0.00000   -2.30556
H      0.26040   -2.63210   -1.02294
H      0.04961   -2.57039    0.52282
H     -0.25655    2.63228   -1.03042
H     -0.05040    2.57471    0.51677
H     -2.58023    0.46315    0.25841
H     -2.52460   -0.87680   -0.48363
H      2.52747    0.87055   -0.50635
H      2.57839   -0.44571    0.27737
H     -0.77522    0.08407   -2.88618
H      0.77001   -0.10212   -2.89014
