29

O     -2.49295    2.15607    1.64193
Fe    -2.38911    2.18493    0.34337
N     -3.64261    3.85024    0.03218
O     -1.93534    1.69862   -2.01175
N     -0.29967    2.47766    0.42084
O     -3.65515    0.53642    0.29114
C     -4.89083    3.62807    0.78011
H     -5.55974    4.49709    0.65856
H     -5.39591    2.73196    0.39426
H     -4.65849    3.48950    1.84285
C     -2.89564    4.99298    0.57910
H     -1.96590    5.14041    0.01033
H     -3.49883    5.91446    0.50233
H     -2.66166    4.80389    1.63517
C     -3.92888    4.04396   -1.39431
H     -4.47070    3.17050   -1.78584
H     -4.56987    4.93177   -1.53536
H     -2.99448    4.20430   -1.95016
H     -1.31125    1.00478   -2.27108
H     -2.51814    1.81556   -2.77573
H      0.10620    2.27047    1.34089
H     -3.89277    0.33119    1.20947
C      0.53315    2.96847   -0.41491
H      1.59332    3.13813   -0.15887
H      0.19338    3.23359   -1.42733
C     -3.83332   -0.62448   -0.53306
H     -3.09413   -1.40277   -0.27852
H     -4.85480   -1.01549   -0.39836
H     -3.70460   -0.31104   -1.57603
