29

O     -2.53722    2.14376    2.19559
Fe    -2.34484    2.19724   -0.21029
N     -3.59834    3.86255   -0.52148
O     -1.93534    1.69862   -2.01175
N     -0.25540    2.48997   -0.13282
O     -3.61088    0.54873   -0.26252
C     -4.84656    3.64038    0.22645
H     -5.51547    4.50940    0.10490
H     -5.35164    2.74427   -0.15940
H     -4.61422    3.50181    1.28919
C     -2.85137    5.00529    0.02544
H     -1.92163    5.15272   -0.54333
H     -3.45456    5.92677   -0.05133
H     -2.61739    4.81620    1.08151
C     -3.88461    4.05627   -1.94797
H     -4.42643    3.18281   -2.33950
H     -4.52560    4.94408   -2.08902
H     -2.95021    4.21661   -2.50382
H     -1.31125    1.00478   -2.27108
H     -2.51814    1.81556   -2.77573
H      0.15047    2.28278    0.78723
H     -3.84850    0.34350    0.65581
C      0.57742    2.98078   -0.96857
H      1.63759    3.15044   -0.71253
H      0.23765    3.24590   -1.98099
C     -3.78905   -0.61217   -1.08672
H     -3.04986   -1.39046   -0.83218
H     -4.81053   -1.00318   -0.95202
H     -3.66033   -0.29873   -2.12969
