23

O      0.40818   -0.60292   -2.49167
O     -0.69761   -2.10675    0.52591
O      0.18933    2.08207   -0.28257
P      2.30972   -0.55754    0.05634
N     -2.38777    0.37703   -0.16836
O     -0.47882    0.27163    1.69224
H     -1.14080   -2.51664    1.28295
H     -0.57497   -2.79605   -0.14393
H      3.16724    0.33118   -0.64201
H      2.77127   -1.79303   -0.46383
H     -2.57256    1.11145   -0.85693
H     -2.90122   -0.44567   -0.49815
H     -0.05123   -0.17854    2.43422
H     -0.23636    1.24145    1.77340
Fe    -0.28941   -0.06968    0.07971
H      2.94239   -0.56589    1.32942
H     -2.83845    0.66503    0.70495
N      0.24389    2.71179    0.98275
H      1.19077    3.09130    1.11489
H     -0.41483    3.50186    0.97497
N      0.49817    2.81617   -1.41346
H     -0.13512    3.62353   -1.46170
H      1.46051    3.16516   -1.32741
