24

O     -0.25729    0.73966   -3.11368
N      2.27303    0.25221   -0.65186
H      2.54346    0.25768   -1.63987
H      2.66794   -0.59655   -0.23593
Fe     0.14835    0.25344   -0.55448
H      2.74831    1.03632   -0.19865
P      0.27629    3.03788   -0.55478
H      1.11728    3.57301   -1.56651
H     -0.87528    3.83357   -0.80306
H      0.79082    3.72520    0.58078
P     -0.20068   -2.18094   -1.32815
H     -0.75509   -2.53322   -2.58381
H      0.94590   -3.01171   -1.28481
H     -1.05685   -2.89094   -0.44426
P     -2.11900    0.67242   -0.15405
H     -2.73024    1.50925   -1.13355
H     -2.90103   -0.50575   -0.25645
P      0.17001   -0.26048    1.78659
H      0.20112    0.77443    2.75861
H     -0.91422   -1.03282    2.27534
N     -2.42851    1.15938    1.42841
H     -2.09521    2.09210    1.67075
H     -3.38108    1.02826    1.77786
Br     1.88641   -1.48412    2.32053
