17

O      0.00000    0.00000    2.07778
Fe     0.00000    0.00000   -0.47778
O     -0.02532   -2.04942   -0.51955
O      0.01885    2.04941   -0.52326
O     -2.09136   -0.00340   -0.66807
O      2.09172    0.00000   -0.66402
O      0.00000    0.00000   -2.52778
H      0.26040   -2.63210   -1.24516
H      0.04961   -2.57039    0.30060
H     -0.25655    2.63228   -1.25264
H     -0.05040    2.57471    0.29454
H     -2.58023    0.46315    0.03619
H     -2.52460   -0.87680   -0.70585
H      2.52747    0.87055   -0.72858
H      2.57839   -0.44571    0.05514
H     -0.77522    0.08407   -3.10840
H      0.77001   -0.10212   -3.11236
