22

O      0.62379   -0.29813   -2.74044
O     -0.66709   -2.13712   -0.38183
O     -0.41338    1.91356    0.45741
P      1.99258   -0.52157    0.52836
O     -2.35339    0.11938   -0.75358
O     -0.76755   -0.13725    1.74867
H     -0.72924   -2.43266    0.54358
H     -0.89126    1.97668    1.37069
H     -0.01246    2.74726    0.17770
H      2.91549    0.35983   -0.08729
H      2.42918   -1.78603    0.06372
H     -2.71514    0.87660   -1.24004
H     -2.86977   -0.64808   -1.04523
H      0.06134   -0.08743    2.25404
Fe    -0.37096   -0.02120   -0.11824
H      2.48744   -0.53912    1.86071
N      0.19404   -3.08776   -1.01502
H     -0.43151   -3.85283   -1.30283
H      0.44633   -2.60182   -1.88377
N     -1.42320    1.10119    2.01296
H     -2.39675    0.90660    1.75224
H     -1.43649    1.24044    3.03273
