37

O      0.79421    0.34823    3.07208
N      0.29327   -1.95689    0.98300
C      1.19810   -1.90518   -0.18028
H      0.64303   -1.46123   -1.02142
H      1.49166   -2.92566   -0.48499
C     -1.06757   -2.41481    0.64114
H     -1.54209   -2.68055    1.59716
H     -1.03379   -3.32180    0.01184
C      2.40837   -1.06339    0.15029
H      3.00152   -1.54195    0.94403
H      3.06947   -0.97365   -0.72768
C     -1.85906   -1.33104   -0.03990
H     -2.90874   -1.64990   -0.15493
H     -1.46579   -1.07196   -1.03937
C      1.84007    1.31062   -0.36780
H      2.82446    1.63111   -0.75201
H      1.28050    0.90780   -1.22577
C     -2.35110    1.03905    0.33770
H     -2.83331    1.51985    1.20079
H     -3.10854    0.83998   -0.43547
C     -1.22151    1.88417   -0.19787
H     -0.77311    1.41672   -1.08649
H     -1.58713    2.88240   -0.50314
C      1.11834    2.48098    0.26149
H      1.70786    2.87717    1.10292
H      0.96841    3.30282   -0.45972
N     -0.16699    2.01848    0.82076
Fe     0.09948    0.07055    1.67381
N      1.97711    0.25330    0.63437
O     -1.79350   -0.19098    0.81984
H      2.60575    0.57265    1.37422
N      0.75915   -2.68914    2.08885
H      1.58871   -2.24050    2.47386
H      1.00352   -3.64571    1.81054
N     -0.67309    2.71708    1.92557
H     -0.89301    3.68869    1.67964
H      0.02377    2.70747    2.67104
