17

O      0.00000    0.00000    1.55253
Fe     0.00000    0.00000    0.04747
O     -0.02532   -2.04942    0.00571
O      0.01885    2.04941    0.00199
O     -2.09136   -0.00340   -0.14282
O      2.09172    0.00000   -0.13877
O      0.00000    0.00000   -2.00253
H      0.26040   -2.63210   -0.71991
H      0.04961   -2.57039    0.82585
H     -0.25655    2.63228   -0.72739
H     -0.05040    2.57471    0.81980
H     -2.58023    0.46315    0.56144
H     -2.52460   -0.87680   -0.18060
H      2.52747    0.87055   -0.20332
H      2.57839   -0.44571    0.58040
H     -0.77522    0.08407   -2.58315
H      0.77001   -0.10212   -2.58711
