45

O     -0.32487   -2.97469    0.79030
Fe    -0.23488   -2.34137    1.71114
N      1.87427   -2.47051    2.18483
N      0.27669   -0.45537    0.90386
N     -2.27183   -2.01339    2.32076
O     -0.16951   -2.19684    3.89025
C     -0.05213   -0.37738   -0.52720
C      1.73390   -0.29023    1.10064
C      2.22223   -1.04284    2.31623
C      2.67866   -3.12607    1.14654
C     -0.45794    0.56851    1.68333
C     -1.96534    0.41912    1.72501
C     -2.50565   -0.60414    2.69718
C     -3.15552   -2.42984    1.22123
C      1.06407   -2.54217    4.49965
C      1.86964   -3.23437    3.42951
C     -1.38061   -2.57565    4.54611
C     -2.37783   -2.92132    3.45775
H     -2.97000   -3.48398    0.98260
H     -4.20821   -2.29825    1.51787
H     -2.94571   -1.82758    0.33042
H      0.22355    0.61318   -0.92712
H      0.48708   -1.16490   -1.06696
H     -1.12506   -0.53757   -0.67961
H      1.98322    0.77957    1.20071
H      2.24095   -0.64371    0.19455
H      2.52459   -2.62817    0.18402
H      3.74791   -3.09435    1.41502
H      2.35506   -4.16769    1.04358
H      1.74147   -0.63696    3.21463
H      3.31156   -0.90928    2.43597
H      2.88249   -3.50816    3.77328
H     -1.22014   -3.46583    5.17261
H     -1.72929   -1.74995    5.18663
H     -2.18915   -3.93747    3.07647
H     -2.04783   -0.43540    3.68018
H     -3.59241   -0.46942    2.82701
H     -2.35965    1.39156    2.06158
H     -2.38768    0.28984    0.71818
H     -0.05840    0.55562    2.70956
H     -0.20083    1.55252    1.25099
H      1.56384   -1.63453    4.87905
H      0.91793   -3.22185    5.35228
Br     0.93264   -4.91223    3.06492
Br    -4.12870   -2.98238    4.26489
