29

O     -2.50261    2.15338    1.76273
Fe    -2.37945    2.18762    0.22257
N     -3.63295    3.85293   -0.08862
O     -1.93534    1.69862   -2.01175
N     -0.29001    2.48035    0.30004
O     -3.64549    0.53911    0.17034
C     -4.88117    3.63076    0.65931
H     -5.55008    4.49978    0.53776
H     -5.38625    2.73465    0.27346
H     -4.64883    3.49219    1.72205
C     -2.88598    4.99567    0.45830
H     -1.95624    5.14310   -0.11047
H     -3.48917    5.91715    0.38153
H     -2.65200    4.80658    1.51437
C     -3.91922    4.04665   -1.51511
H     -4.46104    3.17319   -1.90664
H     -4.56021    4.93446   -1.65616
H     -2.98482    4.20699   -2.07096
H     -1.31125    1.00478   -2.27108
H     -2.51814    1.81556   -2.77573
H      0.11586    2.27316    1.22009
H     -3.88311    0.33388    1.08867
C      0.54281    2.97116   -0.53571
H      1.60298    3.14082   -0.27967
H      0.20304    3.23628   -1.54813
C     -3.82366   -0.62179   -0.65386
H     -3.08447   -1.40008   -0.39932
H     -4.84514   -1.01280   -0.51916
H     -3.69494   -0.30835   -1.69683
