18

O      0.76245   -0.09712   -2.38745
O     -0.34642   -2.07440    0.10793
O      0.38566    2.07703    0.15342
N      2.22246   -0.39027    0.45254
O     -1.87800    0.34074   -0.54394
O     -0.33312    0.05252    1.71435
H     -0.56988   -2.49406    0.95880
H      0.30641    2.53273    1.01131
H      2.81764    0.34560    0.05824
H      2.54042   -1.25981    0.01207
H     -2.16696    1.17628   -0.94383
H     -2.43112   -0.34195   -0.95570
H      0.09815   -0.02801    2.57767
H     -1.27174    0.21562    1.89506
Fe     0.19628   -0.02609   -0.10414
H      2.46730   -0.46107    1.44408
Br     1.19518    3.27698   -1.00435
Br     0.05644   -3.45331   -1.06375
