22

O      0.35639   -0.22369   -2.03555
O     -0.66709   -2.13712   -0.38183
O     -0.14598    1.83912   -0.24748
P      2.25998   -0.59601   -0.17653
O     -2.35339    0.11938   -0.75358
O     -0.76755   -0.13725    1.74867
H     -0.72924   -2.43266    0.54358
H     -0.62386    1.90224    0.66580
H      0.25494    2.67282   -0.52719
H      3.18289    0.28539   -0.79218
H      2.69658   -1.86047   -0.64117
H     -2.71514    0.87660   -1.24004
H     -2.86977   -0.64808   -1.04523
H      0.06134   -0.08743    2.25404
Fe    -0.10356   -0.09564   -0.82313
H      2.75484   -0.61356    1.15582
N      0.19404   -3.08776   -1.01502
H     -0.43151   -3.85283   -1.30283
H      0.44633   -2.60182   -1.88377
N     -1.42320    1.10119    2.01296
H     -2.39675    0.90660    1.75224
H     -1.43649    1.24044    3.03273
