54

O      7.21590   22.79666    6.55610
Fe     6.16935   22.21954    5.06738
P      5.98005   20.19083    6.13852
C      5.24929   18.89430    5.06502
C      4.22961   19.57034    4.16996
P      5.04776   21.06267    3.51775
C      3.79754   22.21156    2.88224
C      4.33626   23.61121    3.09355
N      4.98984   23.86091    4.40196
C      6.15327   20.52593    2.15065
C      7.58742   20.48884    2.64791
P      7.91666   22.05958    3.53338
C      9.52614   21.92183    4.33646
C      8.18907   23.26025    2.20181
H      3.86815   18.92538    3.35220
H      3.59587   22.03197    1.81377
H      2.86460   22.02127    3.42682
H      3.35229   19.90986    4.74477
H      6.03718   21.25739    1.33431
H      5.81428   19.55204    1.76137
H      8.30795   20.33914    1.82655
H      7.73730   19.67177    3.37122
H      8.99451   22.88545    1.54900
H      7.28233   23.41112    1.60052
H      8.50399   24.22223    2.63239
H     10.30495   21.68287    3.59472
H      9.74942   22.88685    4.81641
H      9.49962   21.15371    5.11889
H      5.10627   23.80416    2.33286
H      3.54220   24.36168    2.93488
C      4.03352   24.08865    5.50432
H      4.64350   24.39087    6.36378
H      3.38949   24.94962    5.24824
C      5.82231   25.08328    4.20048
H      6.53126   24.82833    3.40339
H      5.15260   25.86144    3.78853
H      4.81254   18.08884    5.67796
H      6.06593   18.44917    4.47402
C      4.97044   20.20795    7.63709
H      3.91837   20.41092    7.39568
H      5.04868   19.22433    8.12768
H      5.34540   20.98806    8.31266
C      7.59678   19.58895    6.65838
H      7.47518   18.65597    7.23215
H      8.22476   19.39205    5.77940
H      8.07116   20.36081    7.28143
C      6.56322   25.63081    5.38959
H      5.89454   26.02425    6.16799
H      7.23128   24.88158    5.83320
H      7.17230   26.47938    5.04146
C      3.21059   22.88130    5.87987
H      2.82302   22.99588    6.90252
H      2.34905   22.71590    5.22063
H      3.84523   21.97823    5.86151
