36

O      7.51882   22.50559    6.58318
Fe     6.29009   21.86772    5.26864
N      5.51676   20.16427    6.04371
C      5.72966   19.16411    4.96775
C      4.74471   19.36483    3.82107
C      3.87412   21.88219    3.22690
C      4.60283   23.20849    3.44328
N      5.07534   23.43239    4.82221
C      5.86916   20.79244    1.94432
C      7.26783   20.79137    2.49942
O      7.42603   21.72619    3.60242
H      4.92285   18.49878    3.16409
H      3.34926   22.10062    2.28141
H      3.73925   19.18377    4.23421
H      5.70773   21.70570    1.34994
H      5.88951   19.97742    1.20042
H      7.97902   21.09812    1.71523
H      7.57023   19.79223    2.85539
H      5.47146   23.30860    2.77676
H      3.90519   24.02261    3.18056
H      6.77119   19.31048    4.62779
C      4.65418   20.56940    2.85769
H      3.92032   20.14096    2.15608
H      6.03473   19.89970    6.88848
H      4.52784   20.18180    6.31420
H      8.36376   21.95022    3.71719
H      5.57382   24.32484    4.90249
H      4.28105   23.50264    5.46737
C      2.78365   21.66782    4.26122
H      2.13080   22.55228    4.33588
H      2.13893   20.81815    3.99300
H      3.18053   21.46496    5.26984
C      5.62556   17.75762    5.53319
H      5.86370   17.01613    4.75630
H      6.33036   17.60792    6.36632
H      4.60289   17.55913    5.89261
