36

O      7.25227   22.36722    6.29801
Fe     6.55664   22.00609    5.55381
N      5.78331   20.30264    6.32888
C      5.99621   19.30248    5.25292
C      5.01126   19.50320    4.10624
C      4.14067   22.02056    3.51207
C      4.86938   23.34686    3.72845
N      5.34189   23.57076    5.10738
C      6.13571   20.93081    2.22949
C      7.53438   20.92974    2.78459
O      7.69258   21.86456    3.88759
H      5.18940   18.63715    3.44926
H      3.61581   22.23899    2.56658
H      4.00580   19.32214    4.51938
H      5.97428   21.84407    1.63511
H      6.15606   20.11579    1.48559
H      8.24557   21.23649    2.00040
H      7.83678   19.93060    3.14056
H      5.73801   23.44697    3.06193
H      4.17174   24.16098    3.46573
H      7.03774   19.44885    4.91296
C      4.92073   20.70777    3.14286
H      4.18687   20.27933    2.44125
H      6.30128   20.03807    7.17365
H      4.79439   20.32017    6.59937
H      8.63031   22.08859    4.00236
H      5.84037   24.46321    5.18766
H      4.54760   23.64101    5.75254
C      3.05020   21.80619    4.54639
H      2.39735   22.69065    4.62105
H      2.40548   20.95652    4.27817
H      3.44708   21.60333    5.55501
C      5.89211   17.89599    5.81836
H      6.13025   17.15450    5.04147
H      6.59691   17.74629    6.65149
H      4.86944   17.69750    6.17778
