23

O     12.19321    7.11672   12.80176
Fe    12.88658    7.32200   12.05375
N     14.42930    7.64874   10.36498
N     11.80713    8.29732   10.61428
O     14.32053    8.73693   12.83179
N     13.60428    5.46211   11.68140
C     13.91458    8.76201    9.56275
H     14.36234    9.71455    9.90420
H     14.22122    8.68824    8.50395
C     12.43994    8.89963    9.67791
C     15.67259    7.92895   11.05092
H     16.09858    6.97492   11.41901
C     15.42114    8.74651   12.29889
C     14.47602    6.38243    9.63676
H     13.68836    6.36601    8.86410
H     15.43540    6.24624    9.10682
C     14.19521    5.23214   10.55951
H     11.92583    9.55590    8.95417
H     16.26647    9.31799   12.73987
H     13.38935    4.64710   12.26454
H     10.79531    8.45944   10.65559
Br    17.04574    8.72398    9.95691
Br    14.66956    3.56511    9.97270
