24

O     -0.17803    0.64465   -2.61360
N      2.19377    0.34722   -1.15194
H      2.46420    0.35269   -2.13995
H      2.58868   -0.50154   -0.73601
Fe     0.06909    0.34845   -1.05456
H      2.66905    1.13133   -0.69873
P      0.27629    3.03788   -0.55478
H      1.11728    3.57301   -1.56651
H     -0.87528    3.83357   -0.80306
H      0.79082    3.72520    0.58078
P     -0.20068   -2.18094   -1.32815
H     -0.75509   -2.53322   -2.58381
H      0.94590   -3.01171   -1.28481
H     -1.05685   -2.89094   -0.44426
P     -2.19826    0.76743   -0.65413
H     -2.80950    1.60426   -1.63363
H     -2.98029   -0.41074   -0.75653
P      0.09075   -0.16547    1.28651
H      0.12186    0.86944    2.25853
H     -0.99348   -0.93781    1.77526
N     -2.50777    1.25439    0.92833
H     -2.17447    2.18711    1.17067
H     -3.46034    1.12327    1.27778
Br     1.80715   -1.38911    1.82045
