36

O      7.62283   22.55959    6.69446
Fe     6.18608   21.81372    5.15736
N      5.41275   20.11027    5.93243
C      5.62565   19.11011    4.85647
C      4.64070   19.31083    3.70979
C      3.77011   21.82819    3.11562
C      4.49882   23.15449    3.33200
N      4.97133   23.37839    4.71093
C      5.76515   20.73844    1.83304
C      7.16382   20.73737    2.38814
O      7.32202   21.67219    3.49114
H      4.81884   18.44478    3.05281
H      3.24525   22.04662    2.17013
H      3.63524   19.12977    4.12293
H      5.60372   21.65170    1.23866
H      5.78550   19.92342    1.08914
H      7.87501   21.04412    1.60395
H      7.46622   19.73823    2.74411
H      5.36745   23.25460    2.66548
H      3.80118   23.96861    3.06928
H      6.66718   19.25648    4.51651
C      4.55017   20.51540    2.74641
H      3.81631   20.08696    2.04480
H      5.93072   19.84570    6.77720
H      4.42383   20.12780    6.20292
H      8.25975   21.89622    3.60591
H      5.46981   24.27084    4.79121
H      4.17704   23.44864    5.35609
C      2.67964   21.61382    4.14994
H      2.02679   22.49828    4.22460
H      2.03492   20.76415    3.88172
H      3.07652   21.41096    5.15856
C      5.52155   17.70362    5.42191
H      5.75969   16.96213    4.64502
H      6.22635   17.55392    6.25504
H      4.49888   17.50513    5.78133
