19

O      0.75989   -0.20552   -2.23191
O     -0.12715   -2.13314    0.19024
O      0.43576    2.05481    0.09287
P      2.64317   -0.38035    0.37041
P     -2.22553    0.28254   -0.92454
O     -0.19929    0.04417    1.85116
H     -0.70153   -2.54431    0.85361
H     -0.22986   -2.65598   -0.62040
H      0.58159    2.50403    0.93940
H      1.07380    2.44259   -0.52853
H      3.19364   -1.44739   -0.38902
H     -2.38730    1.24743   -1.95659
H      0.37968   -0.22737    2.57891
H     -1.02912    0.31306    2.27257
Fe     0.16733   -0.04643   -0.06456
H      3.24066   -0.65054    1.63573
H     -3.31886    0.66526   -0.09332
Br    -2.95938   -1.53617   -1.85346
Br     3.75448    1.34699   -0.31373
