22

O      0.60410   -0.09928   -2.52100
O     -0.13176   -2.17943   -0.07121
O      0.10773    2.16127   -0.26153
P      2.21448   -0.27217    0.55210
O     -2.19731   -0.02956   -0.23076
O     -0.64106    0.01076    1.68341
H     -0.22828   -2.85443   -0.76923
H      0.53141    2.57598    0.50515
H      0.36283    2.70154   -1.02613
H      3.12459    0.77390    0.25242
H      2.85686   -1.36669   -0.07775
H     -2.77312    0.35585   -0.90589
H     -2.47835    0.30111    0.72429
H     -0.79213   -1.01458    1.66698
Fe    -0.15708    0.06687   -0.19339
H      2.52293   -0.51533    1.91600
N     -0.93253   -2.47185    1.03290
H     -1.88513   -2.68965    0.71559
H     -0.54582   -3.29455    1.51254
N     -1.94509    0.54948    1.82075
H     -2.37163    0.13016    2.65796
H     -1.79979    1.53586    2.06131
