37

O      1.00662    0.43313    3.49958
N      0.08086   -2.04179    0.55550
C      0.98569   -1.99008   -0.60778
H      0.43062   -1.54613   -1.44892
H      1.27925   -3.01056   -0.91249
C     -1.27998   -2.49971    0.21364
H     -1.75450   -2.76545    1.16966
H     -1.24620   -3.40670   -0.41566
C      2.19596   -1.14829   -0.27721
H      2.78911   -1.62685    0.51653
H      2.85706   -1.05855   -1.15518
C     -2.07147   -1.41594   -0.46740
H     -3.12115   -1.73480   -0.58243
H     -1.67820   -1.15686   -1.46687
C      1.62766    1.22572   -0.79530
H      2.61205    1.54621   -1.17951
H      1.06809    0.82290   -1.65327
C     -2.56351    0.95415   -0.08980
H     -3.04572    1.43495    0.77329
H     -3.32095    0.75508   -0.86297
C     -1.43392    1.79927   -0.62537
H     -0.98552    1.33182   -1.51399
H     -1.79954    2.79750   -0.93064
C      0.90593    2.39608   -0.16601
H      1.49545    2.79227    0.67542
H      0.75600    3.21792   -0.88722
N     -0.37940    1.93358    0.39326
Fe    -0.11293   -0.01435    1.24631
N      1.76470    0.16840    0.20687
O     -2.00591   -0.27588    0.39234
H      2.39334    0.48775    0.94672
N      0.54674   -2.77404    1.66135
H      1.37630   -2.32540    2.04636
H      0.79111   -3.73061    1.38304
N     -0.88550    2.63218    1.49807
H     -1.10542    3.60379    1.25214
H     -0.18864    2.62257    2.24354
