18

O      0.64338   -0.08218   -1.90727
O     -0.22735   -2.08934   -0.37225
O      0.50473    2.06209   -0.32676
N      2.34153   -0.40521   -0.02764
O     -1.87800    0.34074   -0.54394
O     -0.33312    0.05252    1.71435
H     -0.45081   -2.50900    0.47862
H      0.42548    2.51779    0.53113
H      2.93671    0.33066   -0.42194
H      2.65949   -1.27475   -0.46811
H     -2.16696    1.17628   -0.94383
H     -2.43112   -0.34195   -0.95570
H      0.09815   -0.02801    2.57767
H     -1.27174    0.21562    1.89506
Fe     0.31535   -0.04103   -0.58432
H      2.58637   -0.47601    0.96390
Br     1.31425    3.26204   -1.48453
Br     0.17551   -3.46825   -1.54393
