23

O      0.41511   -0.11525   -2.51748
O     -0.52170   -2.07818   -0.23040
O      0.08708    2.13902   -0.31843
P      2.05796   -0.28144    0.45444
N     -2.51166    0.36854   -0.33650
O     -0.64925    0.13074    1.73012
H     -0.44904   -2.37325    0.69366
H      0.25540    2.43204    0.59357
H      2.91408    0.66780   -0.15467
H      2.57227   -1.51074   -0.02608
H     -2.86438    1.25739    0.03170
H     -2.74281    0.38351   -1.33494
H      0.00201    0.06919    2.44469
H     -1.49736    0.26955    2.17863
Fe    -0.37803    0.05607   -0.11548
H      2.57329   -0.28319    1.77896
H     -3.10458   -0.36562    0.06295
N      1.16517    2.69351   -1.07327
H      0.81768    3.60816   -1.39149
H      1.18033    2.09519   -1.90674
N      0.34449   -2.95293   -0.95283
H      0.52376   -2.42326   -1.81327
H     -0.25295   -3.74360   -1.22961
