22

O      0.66152   -0.93207   -2.41203
N      2.79878   -0.75498   -0.41972
H      3.21989   -0.62371   -1.34293
H      3.07628   -1.69324   -0.11662
Fe     0.64720   -0.46354   -0.60309
H      3.26331   -0.09277    0.20717
P      0.74320    1.80389   -0.99666
H      0.11718    2.22934   -2.19824
H      0.11695    2.65662   -0.04954
P     -0.57261   -2.41294   -0.35939
H     -1.46834   -2.69052   -1.42136
H      0.29449   -3.53592   -0.41533
H     -1.34841   -2.72130    0.78871
P     -1.98622    0.47071   -0.94972
H     -2.37131    0.04025   -2.24560
H     -2.94231   -0.23275   -0.16537
H     -2.60801    1.75281   -0.92983
P      0.54947   -0.07428    1.65233
H      0.89179   -1.15880    2.50903
H     -0.72640    0.25231    2.18922
Br     1.82021    1.50666    2.41926
Br     2.72908    2.66466   -1.15001
