52

O      7.30614   23.01242    5.90237
Fe     6.44315   22.24588    5.06802
N      6.09547   20.51599    6.18868
C      5.83962   19.34190    5.32193
C      4.76887   19.61850    4.28193
P      5.17899   21.23713    3.58440
C      3.78527   22.31907    3.19383
C      4.36195   23.71248    3.35576
N      5.10668   23.87716    4.62796
C      6.21555   20.95422    2.06116
C      7.63021   20.77810    2.60205
N      7.98629   21.76040    3.63623
C      9.22820   21.35881    4.30714
C      8.16181   23.09261    3.04826
H      4.74701   18.85817    3.48470
H      3.41380   22.14613    2.17035
H      2.95252   22.11624    3.88449
H      3.75805   19.65735    4.71606
H      6.14156   21.90475    1.50728
H      8.35980   20.82244    1.77317
H      7.71454   19.77621    3.04884
H      8.95874   23.07945    2.28361
H      7.22772   23.41927    2.57448
H      8.43694   23.79778    3.84324
H     10.07130   21.37344    3.59508
H      9.42691   22.05188    5.13433
H      9.12216   20.33855    4.69531
H      5.07045   23.92083    2.54006
H      3.57124   24.48133    3.29200
C      4.18166   23.87823    5.76794
H      4.75542   23.98306    6.69705
H      3.47603   24.72370    5.68997
H      3.60715   22.94628    5.79595
C      5.82021   25.16436    4.60389
H      6.41169   25.26634    5.52056
H      6.49371   25.20453    3.74109
H      5.09522   25.99233    4.52708
H      5.55164   18.49782    5.97231
H      6.79173   19.07795    4.84237
C      4.87825   20.77338    7.05818
H      4.07429   21.05887    6.36611
H      5.14905   21.66060    7.64999
C      7.23520   20.22121    7.06984
H      7.01168   19.32755    7.67404
H      8.13228   20.03318    6.47197
H      7.42209   21.07939    7.72478
N      5.70583   19.89485    1.27026
H      5.62108   20.10444    0.28028
H      6.18052   19.00566    1.39675
N      4.52640   19.65770    7.83251
H      3.60190   19.27474    7.67465
H      4.73628   19.71200    8.82283
