12

H 0.000000 0.000000 0.000000
H 0.000000 0.000000 2.442424
H 0.000000 0.000000 4.884848
H 0.000000 0.000000 7.327273
H 0.000000 0.000000 9.769697
H 0.000000 0.000000 12.212121
H 0.000000 0.000000 14.654545
H 0.000000 0.000000 17.096970
H 0.000000 0.000000 19.539394
H 0.000000 0.000000 21.981818
H 0.000000 0.000000 24.424242
H 0.000000 0.000000 26.866667
