54

O      7.45401   22.92796    6.89480
Fe     5.93124   22.08824    4.72868
P      5.74194   20.05953    5.79982
C      5.01118   18.76300    4.72632
C      3.99150   19.43904    3.83126
P      4.80965   20.93137    3.17905
C      3.55943   22.08026    2.54354
C      4.09815   23.47991    2.75485
N      4.75173   23.72961    4.06326
C      5.91516   20.39463    1.81195
C      7.34931   20.35754    2.30921
P      7.67855   21.92828    3.19468
C      9.28803   21.79053    3.99776
C      7.95096   23.12895    1.86311
H      3.63004   18.79408    3.01350
H      3.35776   21.90067    1.47507
H      2.62649   21.88997    3.08812
H      3.11418   19.77856    4.40607
H      5.79907   21.12609    0.99561
H      5.57617   19.42074    1.42267
H      8.06984   20.20784    1.48785
H      7.49919   19.54047    3.03252
H      8.75640   22.75415    1.21030
H      7.04422   23.27982    1.26182
H      8.26588   24.09093    2.29369
H     10.06684   21.55157    3.25602
H      9.51131   22.75555    4.47771
H      9.26151   21.02241    4.78019
H      4.86816   23.67286    1.99416
H      3.30409   24.23038    2.59618
C      3.79541   23.95735    5.16562
H      4.40539   24.25957    6.02508
H      3.15138   24.81832    4.90954
C      5.58420   24.95198    3.86178
H      6.29315   24.69703    3.06469
H      4.91449   25.73014    3.44983
H      4.57443   17.95754    5.33926
H      5.82782   18.31787    4.13532
C      4.73233   20.07665    7.29839
H      3.68026   20.27962    7.05698
H      4.81057   19.09303    7.78898
H      5.10729   20.85676    7.97396
C      7.35867   19.45765    6.31968
H      7.23707   18.52467    6.89345
H      7.98665   19.26075    5.44070
H      7.83305   20.22951    6.94273
C      6.32511   25.49951    5.05089
H      5.65643   25.89295    5.82929
H      6.99317   24.75028    5.49450
H      6.93419   26.34808    4.70276
C      2.97248   22.75000    5.54117
H      2.58491   22.86458    6.56382
H      2.11094   22.58460    4.88193
H      3.60712   21.84693    5.52281
