22

O      0.65422   -0.11022   -2.67426
O     -0.13176   -2.17943   -0.07121
O      0.10773    2.16127   -0.26153
P      2.16436   -0.26123    0.70536
O     -2.24743   -0.01862   -0.07750
O     -0.64106    0.01076    1.68341
H     -0.22828   -2.85443   -0.76923
H      0.53141    2.57598    0.50515
H      0.36283    2.70154   -1.02613
H      3.07447    0.78484    0.40568
H      2.80674   -1.35575    0.07551
H     -2.82324    0.36679   -0.75263
H     -2.52847    0.31205    0.87755
H     -0.79213   -1.01458    1.66698
Fe    -0.20720    0.07781   -0.04013
H      2.47281   -0.50439    2.06926
N     -0.93253   -2.47185    1.03290
H     -1.88513   -2.68965    0.71559
H     -0.54582   -3.29455    1.51254
N     -1.94509    0.54948    1.82075
H     -2.37163    0.13016    2.65796
H     -1.79979    1.53586    2.06131
