45

O     -0.35000   -3.15156    0.53313
Fe    -0.20975   -2.16450    1.96831
N      1.89940   -2.29364    2.44200
N      0.30182   -0.27850    1.16103
N     -2.24670   -1.83652    2.57793
O     -0.14438   -2.01997    4.14742
C     -0.02700   -0.20051   -0.27003
C      1.75903   -0.11336    1.35781
C      2.24736   -0.86597    2.57340
C      2.70379   -2.94920    1.40371
C     -0.43281    0.74538    1.94050
C     -1.94021    0.59599    1.98218
C     -2.48052   -0.42727    2.95435
C     -3.13039   -2.25297    1.47840
C      1.08920   -2.36530    4.75682
C      1.89477   -3.05750    3.68668
C     -1.35548   -2.39878    4.80328
C     -2.35270   -2.74445    3.71492
H     -2.94487   -3.30711    1.23977
H     -4.18308   -2.12138    1.77504
H     -2.92058   -1.65071    0.58759
H      0.24868    0.79005   -0.66995
H      0.51221   -0.98803   -0.80979
H     -1.09993   -0.36070   -0.42244
H      2.00835    0.95644    1.45788
H      2.26608   -0.46684    0.45172
H      2.54972   -2.45130    0.44119
H      3.77304   -2.91748    1.67219
H      2.38019   -3.99082    1.30075
H      1.76660   -0.46009    3.47180
H      3.33669   -0.73241    2.69314
H      2.90762   -3.33129    4.03045
H     -1.19501   -3.28896    5.42978
H     -1.70416   -1.57308    5.44380
H     -2.16402   -3.76060    3.33364
H     -2.02270   -0.25853    3.93735
H     -3.56728   -0.29255    3.08418
H     -2.33452    1.56843    2.31875
H     -2.36255    0.46671    0.97535
H     -0.03327    0.73249    2.96673
H     -0.17570    1.72939    1.50816
H      1.58897   -1.45766    5.13622
H      0.94306   -3.04498    5.60945
Br     0.95777   -4.73536    3.32209
Br    -4.10357   -2.80551    4.52206
