52

O      7.59992   23.27336    6.18641
Fe     6.14937   21.98494    4.78398
N      5.80169   20.25505    5.90464
C      5.54584   19.08096    5.03789
C      4.47509   19.35756    3.99789
P      4.88521   20.97619    3.30036
C      3.49149   22.05813    2.90979
C      4.06817   23.45154    3.07172
N      4.81290   23.61622    4.34392
C      5.92177   20.69328    1.77712
C      7.33643   20.51716    2.31801
N      7.69251   21.49946    3.35219
C      8.93442   21.09787    4.02310
C      7.86803   22.83167    2.76422
H      4.45323   18.59723    3.20066
H      3.12002   21.88519    1.88631
H      2.65874   21.85530    3.60045
H      3.46427   19.39641    4.43202
H      5.84778   21.64381    1.22324
H      8.06602   20.56150    1.48913
H      7.42076   19.51527    2.76480
H      8.66496   22.81851    1.99957
H      6.93394   23.15833    2.29044
H      8.14316   23.53684    3.55920
H      9.77752   21.11250    3.31104
H      9.13313   21.79094    4.85029
H      8.82838   20.07761    4.41127
H      4.77667   23.65989    2.25602
H      3.27746   24.22039    3.00796
C      3.88788   23.61729    5.48390
H      4.46164   23.72212    6.41301
H      3.18225   24.46276    5.40593
H      3.31337   22.68534    5.51191
C      5.52643   24.90342    4.31985
H      6.11791   25.00540    5.23652
H      6.19993   24.94359    3.45705
H      4.80144   25.73139    4.24304
H      5.25786   18.23688    5.68827
H      6.49795   18.81701    4.55833
C      4.58447   20.51244    6.77414
H      3.78051   20.79793    6.08207
H      4.85527   21.39966    7.36595
C      6.94142   19.96027    6.78580
H      6.71790   19.06661    7.39000
H      7.83850   19.77224    6.18793
H      7.12831   20.81845    7.44074
N      5.41205   19.63391    0.98622
H      5.32730   19.84350   -0.00376
H      5.88674   18.74472    1.11271
N      4.23262   19.39676    7.54847
H      3.30812   19.01380    7.39061
H      4.44250   19.45106    8.53879
