36

O      7.60983   22.55284    6.68055
Fe     6.19908   21.82047    5.17127
N      5.42575   20.11702    5.94634
C      5.63865   19.11686    4.87038
C      4.65370   19.31758    3.72370
C      3.78311   21.83494    3.12953
C      4.51182   23.16124    3.34591
N      4.98433   23.38514    4.72484
C      5.77815   20.74519    1.84695
C      7.17682   20.74412    2.40205
O      7.33502   21.67894    3.50505
H      4.83184   18.45153    3.06672
H      3.25825   22.05337    2.18404
H      3.64824   19.13652    4.13684
H      5.61672   21.65845    1.25257
H      5.79850   19.93017    1.10305
H      7.88801   21.05087    1.61786
H      7.47922   19.74498    2.75802
H      5.38045   23.26135    2.67939
H      3.81418   23.97536    3.08319
H      6.68018   19.26323    4.53042
C      4.56317   20.52215    2.76032
H      3.82931   20.09371    2.05871
H      5.94372   19.85245    6.79111
H      4.43683   20.13455    6.21683
H      8.27275   21.90297    3.61982
H      5.48281   24.27759    4.80512
H      4.19004   23.45539    5.37000
C      2.69264   21.62057    4.16385
H      2.03979   22.50503    4.23851
H      2.04792   20.77090    3.89563
H      3.08952   21.41771    5.17247
C      5.53455   17.71037    5.43582
H      5.77269   16.96888    4.65893
H      6.23935   17.56067    6.26895
H      4.51188   17.51188    5.79524
