37

O      0.75881    0.33408    3.00083
N      0.32867   -1.94274    1.05425
C      1.23350   -1.89103   -0.10903
H      0.67843   -1.44708   -0.95017
H      1.52706   -2.91151   -0.41374
C     -1.03217   -2.40066    0.71239
H     -1.50669   -2.66640    1.66841
H     -0.99839   -3.30765    0.08309
C      2.44377   -1.04924    0.22154
H      3.03692   -1.52780    1.01528
H      3.10487   -0.95950   -0.65643
C     -1.82366   -1.31689    0.03135
H     -2.87334   -1.63575   -0.08368
H     -1.43039   -1.05781   -0.96812
C      1.87547    1.32477   -0.29655
H      2.85986    1.64526   -0.68076
H      1.31590    0.92195   -1.15452
C     -2.31570    1.05320    0.40895
H     -2.79791    1.53400    1.27204
H     -3.07314    0.85413   -0.36422
C     -1.18611    1.89832   -0.12662
H     -0.73771    1.43087   -1.01524
H     -1.55173    2.89655   -0.43189
C      1.15374    2.49513    0.33274
H      1.74326    2.89132    1.17417
H      1.00381    3.31697   -0.38847
N     -0.13159    2.03263    0.89201
Fe     0.13488    0.08470    1.74506
N      2.01251    0.26745    0.70562
O     -1.75810   -0.17683    0.89109
H      2.64115    0.58680    1.44547
N      0.79455   -2.67499    2.16010
H      1.62411   -2.22635    2.54511
H      1.03892   -3.63156    1.88179
N     -0.63769    2.73123    1.99682
H     -0.85761    3.70284    1.75089
H      0.05917    2.72162    2.74229
