18

O      0.83535   -0.10627   -2.68144
O     -0.41932   -2.06525    0.40192
O      0.31276    2.08618    0.44741
N      2.14956   -0.38112    0.74653
O     -1.87800    0.34074   -0.54394
O     -0.33312    0.05252    1.71435
H     -0.64278   -2.48491    1.25279
H      0.23351    2.54188    1.30530
H      2.74474    0.35475    0.35223
H      2.46752   -1.25066    0.30606
H     -2.16696    1.17628   -0.94383
H     -2.43112   -0.34195   -0.95570
H      0.09815   -0.02801    2.57767
H     -1.27174    0.21562    1.89506
Fe     0.12338   -0.01694    0.18985
H      2.39440   -0.45192    1.73807
Br     1.12228    3.28613   -0.71036
Br    -0.01646   -3.44416   -0.76976
