29

O     11.68775    7.13750   13.39438
Fe    13.60441    7.57026   11.43092
N     15.07282    7.83385    9.70596
N     12.46593    8.35213    9.90529
O     15.15603    8.66257   12.27956
N     14.17186    5.64006   11.00074
C     14.55617    8.95213    8.88702
H     14.90462    8.85020    7.84132
C     13.05898    8.90370    8.91453
C     16.36742    8.06104   10.33441
H     16.83283    7.08435   10.56248
H     17.09076    8.58191    9.68446
C     16.24049    8.72609   11.68307
C     15.03697    6.56760    8.97148
H     14.24713    6.60075    8.19769
H     15.97296    6.37176    8.41510
C     14.69406    5.41896    9.85367
H     12.50348    9.41389    8.10951
H     14.86833    4.39705    9.47422
H     13.91317    4.81483   11.55135
H     11.44218    8.40574    9.91413
C     14.95047   10.34103    9.37678
H     14.61844   10.51597   10.40974
H     16.03389   10.50157    9.29187
H     14.47265   11.10078    8.73927
C     17.41369    9.39131   12.26938
H     17.29444    9.53309   13.35209
H     18.34546    8.85370   12.02856
H     17.50498   10.38692   11.79262
