23

O     11.96433    7.04896   13.04868
Fe    13.11546    7.38976   11.80683
N     14.65818    7.71650   10.11806
N     12.03601    8.36508   10.36736
O     14.54941    8.80469   12.58487
N     13.83316    5.52987   11.43448
C     14.14346    8.82977    9.31583
H     14.59122    9.78231    9.65728
H     14.45010    8.75600    8.25703
C     12.66882    8.96739    9.43099
C     15.90147    7.99671   10.80400
H     16.32746    7.04268   11.17209
C     15.65002    8.81427   12.05197
C     14.70490    6.45019    9.38984
H     13.91724    6.43377    8.61718
H     15.66428    6.31400    8.85990
C     14.42409    5.29990   10.31259
H     12.15471    9.62366    8.70725
H     16.49535    9.38575   12.49295
H     13.61823    4.71486   12.01762
H     11.02419    8.52720   10.40867
Br    17.27462    8.79174    9.70999
Br    14.89844    3.63287    9.72578
