29

O     -2.51548    2.14980    1.92379
Fe    -2.36658    2.19120    0.06151
N     -3.62008    3.85651   -0.24968
O     -1.93534    1.69862   -2.01175
N     -0.27714    2.48393    0.13898
O     -3.63262    0.54269    0.00928
C     -4.86830    3.63434    0.49825
H     -5.53721    4.50336    0.37670
H     -5.37338    2.73823    0.11240
H     -4.63596    3.49577    1.56099
C     -2.87311    4.99925    0.29724
H     -1.94337    5.14668   -0.27153
H     -3.47630    5.92073    0.22047
H     -2.63913    4.81016    1.35331
C     -3.90635    4.05023   -1.67617
H     -4.44817    3.17677   -2.06770
H     -4.54734    4.93804   -1.81722
H     -2.97195    4.21057   -2.23202
H     -1.31125    1.00478   -2.27108
H     -2.51814    1.81556   -2.77573
H      0.12873    2.27674    1.05903
H     -3.87024    0.33746    0.92761
C      0.55568    2.97474   -0.69677
H      1.61585    3.14440   -0.44073
H      0.21591    3.23986   -1.70919
C     -3.81079   -0.61821   -0.81492
H     -3.07160   -1.39650   -0.56038
H     -4.83227   -1.00922   -0.68022
H     -3.68207   -0.30477   -1.85789
