53

O      5.98541   23.00822    6.92216
Fe     6.28820   22.57432    5.79804
P      5.95074   20.42214    6.32601
C      5.71524   19.13867    5.05090
C      4.64809   19.31453    3.97395
C      4.14112   21.78602    3.93270
C      4.37484   23.18724    3.37034
P      5.00690   24.13088    4.79272
C      5.83622   20.77994    2.22622
C      7.21940   20.86286    2.84334
P      7.59289   22.21230    4.00695
C      9.19983   21.73144    4.70565
C      8.02568   23.61792    2.94363
H      4.74390   18.45042    3.29692
H      4.90261   21.75492    4.83593
H      3.66664   19.18064    4.45475
H      5.67236   21.64599    1.56575
H      5.86153   19.92026    1.53615
H      7.96887   20.97448    2.04042
H      7.48607   19.93521    3.36371
H      8.85809   23.32676    2.28319
H      7.17458   23.92300    2.32039
H      8.34474   24.46698    3.56560
H      9.93060   21.55451    3.89962
H      9.57781   22.53576    5.35620
H      9.08277   20.81551    5.30158
H      5.16596   23.17597    2.61031
H      3.47484   23.62195    2.90545
C      3.59842   24.43329    5.87831
H      3.96220   24.99241    6.75305
H      2.82593   25.01715    5.35242
H      3.18623   23.47800    6.22877
C      5.54538   25.76822    4.26555
H      5.94965   26.30120    5.14076
H      6.31548   25.71461    3.48727
H      4.67384   26.32485    3.88333
H      5.45503   18.23998    5.63926
H      6.70714   18.92000    4.63195
C      4.28431   20.48131    7.22503
H      3.59103   20.95153    6.50609
H      4.00381   19.41624    7.31632
C      7.06957   19.67035    7.52943
H      6.68237   18.68218    7.82764
H      8.07982   19.55257    7.11226
H      7.12362   20.32754    8.40752
C      4.61081   20.57938    3.10989
H      3.78550   20.41549    2.39245
N      4.26921   21.12562    8.46531
H      4.51026   22.11692    8.42198
H      4.74611   20.64450    9.22196
N      2.84493   21.62943    4.44751
H      2.20781   22.40785    4.32960
H      2.39213   20.73682    4.28634
