19

O      0.82898   -0.22407   -2.48461
O     -0.19624   -2.11459    0.44294
O      0.36667    2.07336    0.34557
P      2.57408   -0.36180    0.62311
P     -2.22553    0.28254   -0.92454
O     -0.19929    0.04417    1.85116
H     -0.77062   -2.52576    1.10631
H     -0.29895   -2.63743   -0.36770
H      0.51250    2.52258    1.19210
H      1.00471    2.46114   -0.27583
H      3.12455   -1.42884   -0.13632
H     -2.38730    1.24743   -1.95659
H      0.37968   -0.22737    2.57891
H     -1.02912    0.31306    2.27257
Fe     0.09824   -0.02788    0.18814
H      3.17157   -0.63199    1.88843
H     -3.31886    0.66526   -0.09332
Br    -2.95938   -1.53617   -1.85346
Br     3.68539    1.36554   -0.06103
