19

O      0.72801   -0.19696   -2.11528
O     -0.09527   -2.14170    0.07361
O      0.46764    2.04625   -0.02376
P      2.67505   -0.38891    0.25378
P     -2.22553    0.28254   -0.92454
O     -0.19929    0.04417    1.85116
H     -0.66965   -2.55287    0.73698
H     -0.19798   -2.66454   -0.73703
H      0.61347    2.49547    0.82277
H      1.10568    2.43403   -0.64516
H      3.22552   -1.45595   -0.50565
H     -2.38730    1.24743   -1.95659
H      0.37968   -0.22737    2.57891
H     -1.02912    0.31306    2.27257
Fe     0.19921   -0.05499   -0.18119
H      3.27254   -0.65910    1.51910
H     -3.31886    0.66526   -0.09332
Br    -2.95938   -1.53617   -1.85346
Br     3.78636    1.33843   -0.43036
