54

O      7.48170   22.94323    6.93419
Fe     5.90355   22.07297    4.68929
P      5.71425   20.04426    5.76043
C      4.98349   18.74773    4.68693
C      3.96381   19.42377    3.79187
P      4.78196   20.91610    3.13966
C      3.53174   22.06499    2.50415
C      4.07046   23.46464    2.71546
N      4.72404   23.71434    4.02387
C      5.88747   20.37936    1.77256
C      7.32162   20.34227    2.26982
P      7.65086   21.91301    3.15529
C      9.26034   21.77526    3.95837
C      7.92327   23.11368    1.82372
H      3.60235   18.77881    2.97411
H      3.33007   21.88540    1.43568
H      2.59880   21.87470    3.04873
H      3.08649   19.76329    4.36668
H      5.77138   21.11082    0.95622
H      5.54848   19.40547    1.38328
H      8.04215   20.19257    1.44846
H      7.47150   19.52520    2.99313
H      8.72871   22.73888    1.17091
H      7.01653   23.26455    1.22243
H      8.23819   24.07566    2.25430
H     10.03915   21.53630    3.21663
H      9.48362   22.74028    4.43832
H      9.23382   21.00714    4.74080
H      4.84047   23.65759    1.95477
H      3.27640   24.21511    2.55679
C      3.76772   23.94208    5.12623
H      4.37770   24.24430    5.98569
H      3.12369   24.80305    4.87015
C      5.55651   24.93671    3.82239
H      6.26546   24.68176    3.02530
H      4.88680   25.71487    3.41044
H      4.54674   17.94227    5.29987
H      5.80013   18.30260    4.09593
C      4.70464   20.06138    7.25900
H      3.65257   20.26435    7.01759
H      4.78288   19.07776    7.74959
H      5.07960   20.84149    7.93457
C      7.33098   19.44238    6.28029
H      7.20938   18.50940    6.85406
H      7.95896   19.24548    5.40131
H      7.80536   20.21424    6.90334
C      6.29742   25.48424    5.01150
H      5.62874   25.87768    5.78990
H      6.96548   24.73501    5.45511
H      6.90650   26.33281    4.66337
C      2.94479   22.73473    5.50178
H      2.55722   22.84931    6.52443
H      2.08325   22.56933    4.84254
H      3.57943   21.83166    5.48342
