29

O     11.77835    7.15795   13.30156
Fe    13.51381    7.54981   11.52374
N     14.98222    7.81340    9.79878
N     12.37533    8.33168    9.99811
O     15.06543    8.64212   12.37238
N     14.08126    5.61961   11.09356
C     14.46557    8.93168    8.97984
H     14.81402    8.82975    7.93414
C     12.96838    8.88325    9.00735
C     16.27682    8.04059   10.42723
H     16.74223    7.06390   10.65530
H     17.00016    8.56146    9.77728
C     16.14989    8.70564   11.77589
C     14.94637    6.54715    9.06430
H     14.15653    6.58030    8.29051
H     15.88236    6.35131    8.50792
C     14.60346    5.39851    9.94649
H     12.41288    9.39344    8.20233
H     14.77773    4.37660    9.56704
H     13.82257    4.79438   11.64417
H     11.35158    8.38529   10.00695
C     14.85987   10.32058    9.46960
H     14.52784   10.49552   10.50256
H     15.94329   10.48112    9.38469
H     14.38205   11.08033    8.83209
C     17.32309    9.37086   12.36220
H     17.20384    9.51264   13.44491
H     18.25486    8.83325   12.12138
H     17.41438   10.36647   11.88544
