23

O      0.44180    0.02108   -2.58881
O     -0.34171   -2.14590   -0.36927
O      0.07797    2.13762   -0.25050
P      2.15505   -0.05843    0.67530
N     -2.40002    0.33286   -0.18643
O     -0.50235   -0.00774    1.78455
H     -0.29125   -2.72988    0.40104
H     -0.04963   -2.67424   -1.12796
H      0.21245    2.33993    0.69112
H      3.03962    0.02196   -0.43149
H      2.61502   -1.25427    1.28217
H     -2.82088    0.98720    0.47932
H     -2.57843    0.74144   -1.10920
H     -1.32007   -0.07150    2.31196
Fe    -0.26539   -0.02400   -0.02849
H      2.69161    0.92905    1.53059
H     -2.96582   -0.52088   -0.14919
N      0.63723   -0.17022    2.58810
H      0.63611    0.57358    3.29585
H      0.55295   -1.05986    3.09300
N      1.30087    2.56617   -0.86762
H      1.15845    3.56836   -1.05404
H      1.24400    2.10899   -1.78554
