45

O     -0.33217   -3.02604    0.71564
Fe    -0.22758   -2.29002    1.78580
N      1.88157   -2.41916    2.25949
N      0.28399   -0.40402    0.97852
N     -2.26453   -1.96204    2.39542
O     -0.16221   -2.14549    3.96491
C     -0.04483   -0.32603   -0.45254
C      1.74120   -0.23888    1.17530
C      2.22953   -0.99149    2.39089
C      2.68596   -3.07472    1.22120
C     -0.45064    0.61986    1.75799
C     -1.95804    0.47047    1.79967
C     -2.49835   -0.55279    2.77184
C     -3.14822   -2.37849    1.29589
C      1.07137   -2.49082    4.57431
C      1.87694   -3.18302    3.50417
C     -1.37331   -2.52430    4.62077
C     -2.37053   -2.86997    3.53241
H     -2.96270   -3.43263    1.05726
H     -4.20091   -2.24690    1.59253
H     -2.93841   -1.77623    0.40508
H      0.23085    0.66453   -0.85246
H      0.49438   -1.11355   -0.99230
H     -1.11776   -0.48622   -0.60495
H      1.99052    0.83092    1.27537
H      2.24825   -0.59236    0.26921
H      2.53189   -2.57682    0.25868
H      3.75521   -3.04300    1.48968
H      2.36236   -4.11634    1.11824
H      1.74877   -0.58561    3.28929
H      3.31886   -0.85793    2.51063
H      2.88979   -3.45681    3.84794
H     -1.21284   -3.41448    5.24727
H     -1.72199   -1.69860    5.26129
H     -2.18185   -3.88612    3.15113
H     -2.04053   -0.38405    3.75484
H     -3.58511   -0.41807    2.90167
H     -2.35235    1.44291    2.13624
H     -2.38038    0.34119    0.79284
H     -0.05110    0.60697    2.78422
H     -0.19353    1.60387    1.32565
H      1.57114   -1.58318    4.95371
H      0.92523   -3.17050    5.42694
Br     0.93994   -4.86088    3.13958
Br    -4.12140   -2.93103    4.33955
