22

O      0.66438   -1.02578   -2.77382
N      2.79878   -0.75498   -0.41972
H      3.21989   -0.62371   -1.34293
H      3.07628   -1.69324   -0.11662
Fe     0.64434   -0.36983   -0.24130
H      3.26331   -0.09277    0.20717
P      0.74034    1.89760   -0.63487
H      0.11432    2.32305   -1.83645
H      0.11409    2.75033    0.31225
P     -0.57547   -2.31923    0.00240
H     -1.47120   -2.59681   -1.05957
H      0.29163   -3.44221   -0.05354
H     -1.35127   -2.62759    1.15050
P     -1.98622    0.47071   -0.94972
H     -2.37131    0.04025   -2.24560
H     -2.94231   -0.23275   -0.16537
H     -2.60801    1.75281   -0.92983
P      0.54661    0.01943    2.01412
H      0.88893   -1.06509    2.87082
H     -0.72926    0.34602    2.55101
Br     1.81735    1.60037    2.78105
Br     2.72622    2.75837   -0.78822
