22

O      0.66044   -0.89661   -2.27514
N      2.79878   -0.75498   -0.41972
H      3.21989   -0.62371   -1.34293
H      3.07628   -1.69324   -0.11662
Fe     0.64828   -0.49900   -0.73998
H      3.26331   -0.09277    0.20717
P      0.74428    1.76843   -1.13355
H      0.11826    2.19388   -2.33513
H      0.11803    2.62116   -0.18643
P     -0.57153   -2.44840   -0.49628
H     -1.46726   -2.72598   -1.55825
H      0.29557   -3.57138   -0.55222
H     -1.34733   -2.75676    0.65182
P     -1.98622    0.47071   -0.94972
H     -2.37131    0.04025   -2.24560
H     -2.94231   -0.23275   -0.16537
H     -2.60801    1.75281   -0.92983
P      0.55055   -0.10974    1.51544
H      0.89287   -1.19426    2.37214
H     -0.72532    0.21685    2.05233
Br     1.82129    1.47120    2.28237
Br     2.73016    2.62920   -1.28690
