45

O     -0.38324   -3.38549    0.19301
Fe    -0.17651   -1.93057    2.30843
N      1.93264   -2.05971    2.78212
N      0.33506   -0.04457    1.50115
N     -2.21346   -1.60259    2.91805
O     -0.11114   -1.78604    4.48754
C      0.00624    0.03342    0.07009
C      1.79227    0.12057    1.69793
C      2.28060   -0.63204    2.91352
C      2.73703   -2.71527    1.74383
C     -0.39957    0.97931    2.28062
C     -1.90697    0.82992    2.32230
C     -2.44728   -0.19334    3.29447
C     -3.09715   -2.01904    1.81852
C      1.12244   -2.13137    5.09694
C      1.92801   -2.82357    4.02680
C     -1.32224   -2.16485    5.14340
C     -2.31946   -2.51052    4.05504
H     -2.91163   -3.07318    1.57989
H     -4.14984   -1.88745    2.11516
H     -2.88734   -1.41678    0.92771
H      0.28192    1.02398   -0.32983
H      0.54545   -0.75410   -0.46967
H     -1.06669   -0.12677   -0.08232
H      2.04159    1.19037    1.79800
H      2.29932   -0.23291    0.79184
H      2.58296   -2.21737    0.78131
H      3.80628   -2.68355    2.01231
H      2.41343   -3.75689    1.64087
H      1.79984   -0.22616    3.81192
H      3.36993   -0.49848    3.03326
H      2.94086   -3.09736    4.37057
H     -1.16177   -3.05503    5.76990
H     -1.67092   -1.33915    5.78392
H     -2.13078   -3.52667    3.67376
H     -1.98946   -0.02460    4.27747
H     -3.53404   -0.05862    3.42430
H     -2.30128    1.80236    2.65887
H     -2.32931    0.70064    1.31547
H     -0.00003    0.96642    3.30685
H     -0.14246    1.96332    1.84828
H      1.62221   -1.22373    5.47634
H      0.97630   -2.81105    5.94957
Br     0.99101   -4.50143    3.66221
Br    -4.07033   -2.57158    4.86218
