19

O      0.84227   -0.22763   -2.53320
O     -0.20953   -2.11103    0.49153
O      0.35338    2.07692    0.39416
P      2.56079   -0.35824    0.67170
P     -2.22553    0.28254   -0.92454
O     -0.19929    0.04417    1.85116
H     -0.78391   -2.52220    1.15490
H     -0.31224   -2.63387   -0.31911
H      0.49921    2.52614    1.24069
H      0.99142    2.46470   -0.22724
H      3.11126   -1.42528   -0.08773
H     -2.38730    1.24743   -1.95659
H      0.37968   -0.22737    2.57891
H     -1.02912    0.31306    2.27257
Fe     0.08495   -0.02432    0.23673
H      3.15828   -0.62843    1.93702
H     -3.31886    0.66526   -0.09332
Br    -2.95938   -1.53617   -1.85346
Br     3.67210    1.36910   -0.01244
