23

O      0.34875   -0.10092   -2.31652
O     -0.52170   -2.07818   -0.23040
O      0.08708    2.13902   -0.31843
P      2.12432   -0.29577    0.25348
N     -2.44530    0.35421   -0.53746
O     -0.64925    0.13074    1.73012
H     -0.44904   -2.37325    0.69366
H      0.25540    2.43204    0.59357
H      2.98044    0.65347   -0.35563
H      2.63863   -1.52507   -0.22704
H     -2.79802    1.24306   -0.16926
H     -2.67645    0.36918   -1.53590
H      0.00201    0.06919    2.44469
H     -1.49736    0.26955    2.17863
Fe    -0.31167    0.04174   -0.31644
H      2.63965   -0.29752    1.57800
H     -3.03822   -0.37995   -0.13801
N      1.16517    2.69351   -1.07327
H      0.81768    3.60816   -1.39149
H      1.18033    2.09519   -1.90674
N      0.34449   -2.95293   -0.95283
H      0.52376   -2.42326   -1.81327
H     -0.25295   -3.74360   -1.22961
