53

O      5.91894   23.10347    7.16893
Fe     6.35467   22.47907    5.55127
P      6.01721   20.32689    6.07924
C      5.78171   19.04342    4.80413
C      4.71456   19.21928    3.72718
C      4.20759   21.69077    3.68593
C      4.44131   23.09199    3.12357
P      5.07337   24.03563    4.54595
C      5.90269   20.68469    1.97945
C      7.28587   20.76761    2.59657
P      7.65936   22.11705    3.76018
C      9.26630   21.63619    4.45888
C      8.09215   23.52267    2.69686
H      4.81037   18.35517    3.05015
H      4.96908   21.65967    4.58916
H      3.73311   19.08539    4.20798
H      5.73883   21.55074    1.31898
H      5.92800   19.82501    1.28938
H      8.03534   20.87923    1.79365
H      7.55254   19.83996    3.11694
H      8.92456   23.23151    2.03642
H      7.24105   23.82775    2.07362
H      8.41121   24.37173    3.31883
H      9.99707   21.45926    3.65285
H      9.64428   22.44051    5.10943
H      9.14924   20.72026    5.05481
H      5.23243   23.08072    2.36354
H      3.54131   23.52670    2.65868
C      3.66489   24.33804    5.63154
H      4.02867   24.89716    6.50628
H      2.89240   24.92190    5.10565
H      3.25270   23.38275    5.98200
C      5.61185   25.67297    4.01878
H      6.01612   26.20595    4.89399
H      6.38195   25.61936    3.24050
H      4.74031   26.22960    3.63656
H      5.52150   18.14473    5.39249
H      6.77361   18.82475    4.38518
C      4.35078   20.38606    6.97826
H      3.65750   20.85628    6.25932
H      4.07028   19.32099    7.06955
C      7.13604   19.57510    7.28266
H      6.74884   18.58693    7.58087
H      8.14629   19.45732    6.86549
H      7.19009   20.23229    8.16075
C      4.67728   20.48413    2.86312
H      3.85197   20.32024    2.14568
N      4.33568   21.03037    8.21854
H      4.57673   22.02167    8.17521
H      4.81258   20.54925    8.97519
N      2.91140   21.53418    4.20074
H      2.27428   22.31260    4.08283
H      2.45860   20.64157    4.03957
