36

O      7.38879   22.43809    6.44407
Fe     6.42012   21.93522    5.40775
N      5.64679   20.23177    6.18282
C      5.85969   19.23161    5.10686
C      4.87474   19.43233    3.96018
C      4.00415   21.94969    3.36601
C      4.73286   23.27599    3.58239
N      5.20537   23.49989    4.96132
C      5.99919   20.85994    2.08343
C      7.39786   20.85887    2.63853
O      7.55606   21.79369    3.74153
H      5.05288   18.56628    3.30320
H      3.47929   22.16812    2.42052
H      3.86928   19.25127    4.37332
H      5.83776   21.77320    1.48905
H      6.01954   20.04492    1.33953
H      8.10905   21.16562    1.85434
H      7.70026   19.85973    2.99450
H      5.60149   23.37610    2.91587
H      4.03522   24.09011    3.31967
H      6.90122   19.37798    4.76690
C      4.78421   20.63690    2.99680
H      4.05035   20.20846    2.29519
H      6.16476   19.96720    7.02759
H      4.65787   20.24930    6.45331
H      8.49379   22.01772    3.85630
H      5.70385   24.39234    5.04160
H      4.41108   23.57014    5.60648
C      2.91368   21.73532    4.40033
H      2.26083   22.61978    4.47499
H      2.26896   20.88565    4.13211
H      3.31056   21.53246    5.40895
C      5.75559   17.82512    5.67230
H      5.99373   17.08363    4.89541
H      6.46039   17.67542    6.50543
H      4.73292   17.62663    6.03172
