53

O      5.95095   23.05761    7.05011
Fe     6.32266   22.52493    5.67009
P      5.98520   20.37275    6.19806
C      5.74970   19.08928    4.92295
C      4.68255   19.26514    3.84600
C      4.17558   21.73663    3.80475
C      4.40930   23.13785    3.24239
P      5.04136   24.08149    4.66477
C      5.87068   20.73055    2.09827
C      7.25386   20.81347    2.71539
P      7.62735   22.16291    3.87900
C      9.23429   21.68205    4.57770
C      8.06014   23.56853    2.81568
H      4.77836   18.40103    3.16897
H      4.93707   21.70553    4.70798
H      3.70110   19.13125    4.32680
H      5.70682   21.59660    1.43780
H      5.89599   19.87087    1.40820
H      8.00333   20.92509    1.91247
H      7.52053   19.88582    3.23576
H      8.89255   23.27737    2.15524
H      7.20904   23.87361    2.19244
H      8.37920   24.41759    3.43765
H      9.96506   21.50512    3.77167
H      9.61227   22.48637    5.22825
H      9.11723   20.76612    5.17363
H      5.20042   23.12658    2.48236
H      3.50930   23.57256    2.77750
C      3.63288   24.38390    5.75036
H      3.99666   24.94302    6.62510
H      2.86039   24.96776    5.22447
H      3.22069   23.42861    6.10082
C      5.57984   25.71883    4.13760
H      5.98411   26.25181    5.01281
H      6.34994   25.66522    3.35932
H      4.70830   26.27546    3.75538
H      5.48949   18.19059    5.51131
H      6.74160   18.87061    4.50400
C      4.31877   20.43192    7.09708
H      3.62549   20.90214    6.37814
H      4.03827   19.36685    7.18837
C      7.10403   19.62096    7.40148
H      6.71683   18.63279    7.69969
H      8.11428   19.50318    6.98431
H      7.15808   20.27815    8.27957
C      4.64527   20.52999    2.98194
H      3.81996   20.36610    2.26450
N      4.30367   21.07623    8.33736
H      4.54472   22.06753    8.29403
H      4.78057   20.59511    9.09401
N      2.87939   21.58004    4.31956
H      2.24227   22.35846    4.20165
H      2.42659   20.68743    4.15839
