24

O     -0.13917    0.59808   -2.36847
N      2.15491    0.39379   -1.39707
H      2.42534    0.39926   -2.38508
H      2.54982   -0.45497   -0.98114
Fe     0.03023    0.39502   -1.29969
H      2.63019    1.17790   -0.94386
P      0.27629    3.03788   -0.55478
H      1.11728    3.57301   -1.56651
H     -0.87528    3.83357   -0.80306
H      0.79082    3.72520    0.58078
P     -0.20068   -2.18094   -1.32815
H     -0.75509   -2.53322   -2.58381
H      0.94590   -3.01171   -1.28481
H     -1.05685   -2.89094   -0.44426
P     -2.23712    0.81400   -0.89926
H     -2.84836    1.65083   -1.87876
H     -3.01915   -0.36417   -1.00166
P      0.05189   -0.11890    1.04138
H      0.08300    0.91601    2.01340
H     -1.03234   -0.89124    1.53013
N     -2.54663    1.30096    0.68320
H     -2.21333    2.23368    0.92554
H     -3.49920    1.16984    1.03265
Br     1.76829   -1.34254    1.57532
