24

O     -0.14694    0.60739   -2.41750
N      2.16268    0.38448   -1.34804
H      2.43311    0.38995   -2.33605
H      2.55759   -0.46428   -0.93211
Fe     0.03800    0.38571   -1.25066
H      2.63796    1.16859   -0.89483
P      0.27629    3.03788   -0.55478
H      1.11728    3.57301   -1.56651
H     -0.87528    3.83357   -0.80306
H      0.79082    3.72520    0.58078
P     -0.20068   -2.18094   -1.32815
H     -0.75509   -2.53322   -2.58381
H      0.94590   -3.01171   -1.28481
H     -1.05685   -2.89094   -0.44426
P     -2.22935    0.80469   -0.85023
H     -2.84059    1.64152   -1.82973
H     -3.01138   -0.37348   -0.95263
P      0.05966   -0.12821    1.09041
H      0.09077    0.90670    2.06243
H     -1.02457   -0.90055    1.57916
N     -2.53886    1.29165    0.73223
H     -2.20556    2.22437    0.97457
H     -3.49143    1.16053    1.08168
Br     1.77606   -1.35185    1.62435
