23

O      0.43642    0.02074   -2.56934
O     -0.34171   -2.14590   -0.36927
O      0.07797    2.13762   -0.25050
P      2.16043   -0.05809    0.65583
N     -2.39464    0.33320   -0.20590
O     -0.50235   -0.00774    1.78455
H     -0.29125   -2.72988    0.40104
H     -0.04963   -2.67424   -1.12796
H      0.21245    2.33993    0.69112
H      3.04500    0.02230   -0.45096
H      2.62040   -1.25393    1.26270
H     -2.81550    0.98754    0.45985
H     -2.57305    0.74178   -1.12867
H     -1.32007   -0.07150    2.31196
Fe    -0.26001   -0.02366   -0.04796
H      2.69699    0.92939    1.51112
H     -2.96044   -0.52054   -0.16866
N      0.63723   -0.17022    2.58810
H      0.63611    0.57358    3.29585
H      0.55295   -1.05986    3.09300
N      1.30087    2.56617   -0.86762
H      1.15845    3.56836   -1.05404
H      1.24400    2.10899   -1.78554
