54

O      7.26574   22.82414    6.62699
Fe     6.11951   22.19206    4.99649
P      5.93021   20.16335    6.06763
C      5.19945   18.86682    4.99413
C      4.17977   19.54286    4.09907
P      4.99792   21.03519    3.44686
C      3.74770   22.18408    2.81135
C      4.28642   23.58373    3.02266
N      4.94000   23.83343    4.33107
C      6.10343   20.49845    2.07976
C      7.53758   20.46136    2.57702
P      7.86682   22.03210    3.46249
C      9.47630   21.89435    4.26557
C      8.13923   23.23277    2.13092
H      3.81831   18.89790    3.28131
H      3.54603   22.00449    1.74288
H      2.81476   21.99379    3.35593
H      3.30245   19.88238    4.67388
H      5.98734   21.22991    1.26342
H      5.76444   19.52456    1.69048
H      8.25811   20.31166    1.75566
H      7.68746   19.64429    3.30033
H      8.94467   22.85797    1.47811
H      7.23249   23.38364    1.52963
H      8.45415   24.19475    2.56150
H     10.25511   21.65539    3.52383
H      9.69958   22.85937    4.74552
H      9.44978   21.12623    5.04800
H      5.05643   23.77668    2.26197
H      3.49236   24.33420    2.86399
C      3.98368   24.06117    5.43343
H      4.59366   24.36339    6.29289
H      3.33965   24.92214    5.17735
C      5.77247   25.05580    4.12959
H      6.48142   24.80085    3.33250
H      5.10276   25.83396    3.71764
H      4.76270   18.06136    5.60707
H      6.01609   18.42169    4.40313
C      4.92060   20.18047    7.56620
H      3.86853   20.38344    7.32479
H      4.99884   19.19685    8.05679
H      5.29556   20.96058    8.24177
C      7.54694   19.56147    6.58749
H      7.42534   18.62849    7.16126
H      8.17492   19.36457    5.70851
H      8.02132   20.33333    7.21054
C      6.51338   25.60333    5.31870
H      5.84470   25.99677    6.09710
H      7.18144   24.85410    5.76231
H      7.12246   26.45190    4.97057
C      3.16075   22.85382    5.80898
H      2.77318   22.96840    6.83163
H      2.29921   22.68842    5.14974
H      3.79539   21.95075    5.79062
