29

O     -2.54124    2.14264    2.24592
Fe    -2.34082    2.19836   -0.26062
N     -3.59432    3.86367   -0.57181
O     -1.93534    1.69862   -2.01175
N     -0.25138    2.49109   -0.18315
O     -3.60686    0.54985   -0.31285
C     -4.84254    3.64150    0.17612
H     -5.51145    4.51052    0.05457
H     -5.34762    2.74539   -0.20973
H     -4.61020    3.50293    1.23886
C     -2.84735    5.00641   -0.02489
H     -1.91761    5.15384   -0.59366
H     -3.45054    5.92789   -0.10166
H     -2.61337    4.81732    1.03118
C     -3.88059    4.05739   -1.99830
H     -4.42241    3.18393   -2.38983
H     -4.52158    4.94520   -2.13935
H     -2.94619    4.21773   -2.55415
H     -1.31125    1.00478   -2.27108
H     -2.51814    1.81556   -2.77573
H      0.15449    2.28390    0.73690
H     -3.84448    0.34462    0.60548
C      0.58144    2.98190   -1.01890
H      1.64161    3.15156   -0.76286
H      0.24167    3.24702   -2.03132
C     -3.78503   -0.61105   -1.13705
H     -3.04584   -1.38934   -0.88251
H     -4.80651   -1.00206   -1.00235
H     -3.65631   -0.29761   -2.18002
