36

O      7.72685   22.61359    6.80574
Fe     6.08206   21.75972    5.04608
N      5.30873   20.05627    5.82115
C      5.52163   19.05611    4.74519
C      4.53668   19.25683    3.59851
C      3.66609   21.77419    3.00434
C      4.39480   23.10049    3.22072
N      4.86731   23.32439    4.59965
C      5.66113   20.68444    1.72176
C      7.05980   20.68337    2.27686
O      7.21800   21.61819    3.37986
H      4.71482   18.39078    2.94153
H      3.14123   21.99262    2.05885
H      3.53122   19.07577    4.01165
H      5.49970   21.59770    1.12738
H      5.68148   19.86942    0.97786
H      7.77099   20.99012    1.49267
H      7.36220   19.68423    2.63283
H      5.26343   23.20060    2.55420
H      3.69716   23.91461    2.95800
H      6.56316   19.20248    4.40523
C      4.44615   20.46140    2.63513
H      3.71229   20.03296    1.93352
H      5.82670   19.79170    6.66592
H      4.31981   20.07380    6.09164
H      8.15573   21.84222    3.49463
H      5.36579   24.21684    4.67993
H      4.07302   23.39464    5.24481
C      2.57562   21.55982    4.03866
H      1.92277   22.44428    4.11332
H      1.93090   20.71015    3.77044
H      2.97250   21.35696    5.04728
C      5.41753   17.64962    5.31063
H      5.65567   16.90813    4.53374
H      6.12233   17.49992    6.14376
H      4.39486   17.45113    5.67005
