22

O      0.66454   -1.03084   -2.79337
N      2.79878   -0.75498   -0.41972
H      3.21989   -0.62371   -1.34293
H      3.07628   -1.69324   -0.11662
Fe     0.64418   -0.36477   -0.22175
H      3.26331   -0.09277    0.20717
P      0.74018    1.90266   -0.61532
H      0.11416    2.32811   -1.81690
H      0.11393    2.75539    0.33180
P     -0.57563   -2.31417    0.02195
H     -1.47136   -2.59175   -1.04002
H      0.29147   -3.43715   -0.03399
H     -1.35143   -2.62253    1.17005
P     -1.98622    0.47071   -0.94972
H     -2.37131    0.04025   -2.24560
H     -2.94231   -0.23275   -0.16537
H     -2.60801    1.75281   -0.92983
P      0.54645    0.02449    2.03367
H      0.88877   -1.06003    2.89037
H     -0.72942    0.35108    2.57056
Br     1.81719    1.60543    2.80060
Br     2.72606    2.76343   -0.76867
