24

O     -0.27439    0.76015   -3.22153
N      2.29013    0.23172   -0.54401
H      2.56056    0.23719   -1.53202
H      2.68504   -0.61704   -0.12808
Fe     0.16545    0.23295   -0.44663
H      2.76541    1.01583   -0.09080
P      0.27629    3.03788   -0.55478
H      1.11728    3.57301   -1.56651
H     -0.87528    3.83357   -0.80306
H      0.79082    3.72520    0.58078
P     -0.20068   -2.18094   -1.32815
H     -0.75509   -2.53322   -2.58381
H      0.94590   -3.01171   -1.28481
H     -1.05685   -2.89094   -0.44426
P     -2.10190    0.65193   -0.04620
H     -2.71314    1.48876   -1.02570
H     -2.88393   -0.52624   -0.14860
P      0.18711   -0.28097    1.89444
H      0.21822    0.75394    2.86646
H     -0.89712   -1.05331    2.38319
N     -2.41141    1.13889    1.53626
H     -2.07811    2.07161    1.77860
H     -3.36398    1.00777    1.88571
Br     1.90351   -1.50461    2.42838
