52

O      7.46527   23.15376    6.05623
Fe     6.28402   22.10454    4.91416
N      5.93634   20.37465    6.03482
C      5.68049   19.20056    5.16807
C      4.60974   19.47716    4.12807
P      5.01986   21.09579    3.43054
C      3.62614   22.17773    3.03997
C      4.20282   23.57114    3.20190
N      4.94755   23.73582    4.47410
C      6.05642   20.81288    1.90730
C      7.47108   20.63676    2.44819
N      7.82716   21.61906    3.48237
C      9.06907   21.21747    4.15328
C      8.00268   22.95127    2.89440
H      4.58788   18.71683    3.33084
H      3.25467   22.00479    2.01649
H      2.79339   21.97490    3.73063
H      3.59892   19.51601    4.56220
H      5.98243   21.76341    1.35342
H      8.20067   20.68110    1.61931
H      7.55541   19.63487    2.89498
H      8.79961   22.93811    2.12975
H      7.06859   23.27793    2.42062
H      8.27781   23.65644    3.68938
H      9.91217   21.23210    3.44122
H      9.26778   21.91054    4.98047
H      8.96303   20.19721    4.54145
H      4.91132   23.77949    2.38620
H      3.41211   24.33999    3.13814
C      4.02253   23.73689    5.61408
H      4.59629   23.84172    6.54319
H      3.31690   24.58236    5.53611
H      3.44802   22.80494    5.64209
C      5.66108   25.02302    4.45003
H      6.25256   25.12500    5.36670
H      6.33458   25.06319    3.58723
H      4.93609   25.85099    4.37322
H      5.39251   18.35648    5.81845
H      6.63260   18.93661    4.68851
C      4.71912   20.63204    6.90432
H      3.91516   20.91753    6.21225
H      4.98992   21.51926    7.49613
C      7.07607   20.07987    6.91598
H      6.85255   19.18621    7.52018
H      7.97315   19.89184    6.31811
H      7.26296   20.93805    7.57092
N      5.54670   19.75351    1.11640
H      5.46195   19.96310    0.12642
H      6.02139   18.86432    1.24289
N      4.36727   19.51636    7.67865
H      3.44277   19.13340    7.52079
H      4.57715   19.57066    8.66897
