22

O      0.59171   -0.28920   -2.65585
O     -0.66709   -2.13712   -0.38183
O     -0.38130    1.90463    0.37282
P      2.02466   -0.53050    0.44377
O     -2.35339    0.11938   -0.75358
O     -0.76755   -0.13725    1.74867
H     -0.72924   -2.43266    0.54358
H     -0.85918    1.96775    1.28610
H      0.01962    2.73833    0.09311
H      2.94757    0.35090   -0.17188
H      2.46126   -1.79496   -0.02087
H     -2.71514    0.87660   -1.24004
H     -2.86977   -0.64808   -1.04523
H      0.06134   -0.08743    2.25404
Fe    -0.33888   -0.03013   -0.20283
H      2.51952   -0.54805    1.77612
N      0.19404   -3.08776   -1.01502
H     -0.43151   -3.85283   -1.30283
H      0.44633   -2.60182   -1.88377
N     -1.42320    1.10119    2.01296
H     -2.39675    0.90660    1.75224
H     -1.43649    1.24044    3.03273
