45

O     -0.36379   -3.24855    0.39211
Fe    -0.19596   -2.06751    2.10933
N      1.91319   -2.19665    2.58302
N      0.31561   -0.18151    1.30205
N     -2.23291   -1.73953    2.71895
O     -0.13059   -1.92298    4.28844
C     -0.01321   -0.10352   -0.12901
C      1.77282   -0.01637    1.49883
C      2.26115   -0.76898    2.71442
C      2.71758   -2.85221    1.54473
C     -0.41902    0.84237    2.08152
C     -1.92642    0.69298    2.12320
C     -2.46673   -0.33028    3.09537
C     -3.11660   -2.15598    1.61942
C      1.10299   -2.26831    4.89784
C      1.90856   -2.96051    3.82770
C     -1.34169   -2.30179    4.94430
C     -2.33891   -2.64746    3.85594
H     -2.93108   -3.21012    1.38079
H     -4.16929   -2.02439    1.91606
H     -2.90679   -1.55372    0.72861
H      0.26247    0.88704   -0.52893
H      0.52600   -0.89104   -0.66877
H     -1.08614   -0.26371   -0.28142
H      2.02214    1.05343    1.59890
H      2.27987   -0.36985    0.59274
H      2.56351   -2.35431    0.58221
H      3.78683   -2.82049    1.81321
H      2.39398   -3.89383    1.44177
H      1.78039   -0.36310    3.61282
H      3.35048   -0.63542    2.83416
H      2.92141   -3.23430    4.17147
H     -1.18122   -3.19197    5.57080
H     -1.69037   -1.47609    5.58482
H     -2.15023   -3.66361    3.47466
H     -2.00891   -0.16154    4.07837
H     -3.55349   -0.19556    3.22520
H     -2.32073    1.66542    2.45977
H     -2.34876    0.56370    1.11637
H     -0.01948    0.82948    3.10775
H     -0.16191    1.82638    1.64918
H      1.60276   -1.36067    5.27724
H      0.95685   -2.94799    5.75047
Br     0.97156   -4.63837    3.46311
Br    -4.08978   -2.70852    4.66308
