23

O      0.34075   -0.55138   -2.24314
O     -0.63018   -2.15829    0.27738
O      0.18933    2.08207   -0.28257
P      2.30972   -0.55754    0.05634
N     -2.32034    0.32549   -0.41689
O     -0.47882    0.27163    1.69224
H     -1.07337   -2.56818    1.03442
H     -0.50754   -2.84759   -0.39246
H      3.16724    0.33118   -0.64201
H      2.77127   -1.79303   -0.46383
H     -2.50513    1.05991   -1.10546
H     -2.83379   -0.49721   -0.74668
H     -0.05123   -0.17854    2.43422
H     -0.23636    1.24145    1.77340
Fe    -0.22198   -0.12122   -0.16882
H      2.94239   -0.56589    1.32942
H     -2.77102    0.61349    0.45642
N      0.24389    2.71179    0.98275
H      1.19077    3.09130    1.11489
H     -0.41483    3.50186    0.97497
N      0.49817    2.81617   -1.41346
H     -0.13512    3.62353   -1.46170
H      1.46051    3.16516   -1.32741
