52

O      7.50199   23.18638    6.09173
Fe     6.24730   22.07192    4.87866
N      5.89962   20.34203    5.99932
C      5.64377   19.16794    5.13257
C      4.57302   19.44454    4.09257
P      4.98314   21.06317    3.39504
C      3.58942   22.14511    3.00447
C      4.16610   23.53852    3.16640
N      4.91083   23.70320    4.43860
C      6.01970   20.78026    1.87180
C      7.43436   20.60414    2.41269
N      7.79044   21.58644    3.44687
C      9.03235   21.18485    4.11778
C      7.96596   22.91865    2.85890
H      4.55116   18.68421    3.29534
H      3.21795   21.97217    1.98099
H      2.75667   21.94228    3.69513
H      3.56220   19.48339    4.52670
H      5.94571   21.73079    1.31792
H      8.16395   20.64848    1.58381
H      7.51869   19.60225    2.85948
H      8.76289   22.90549    2.09425
H      7.03187   23.24531    2.38512
H      8.24109   23.62382    3.65388
H      9.87545   21.19948    3.40572
H      9.23106   21.87792    4.94497
H      8.92631   20.16459    4.50595
H      4.87460   23.74687    2.35070
H      3.37539   24.30737    3.10264
C      3.98581   23.70427    5.57858
H      4.55957   23.80910    6.50769
H      3.28018   24.54974    5.50061
H      3.41130   22.77232    5.60659
C      5.62436   24.99040    4.41453
H      6.21584   25.09238    5.33120
H      6.29786   25.03057    3.55173
H      4.89937   25.81837    4.33772
H      5.35579   18.32386    5.78295
H      6.59588   18.90399    4.65301
C      4.68240   20.59942    6.86882
H      3.87844   20.88491    6.17675
H      4.95320   21.48664    7.46063
C      7.03935   20.04725    6.88048
H      6.81583   19.15359    7.48468
H      7.93643   19.85922    6.28261
H      7.22624   20.90543    7.53542
N      5.50998   19.72089    1.08090
H      5.42523   19.93048    0.09092
H      5.98467   18.83170    1.20739
N      4.33055   19.48374    7.64315
H      3.40605   19.10078    7.48529
H      4.54043   19.53804    8.63347
