29

O     12.09199    7.22877   12.98027
Fe    13.20017    7.47899   11.84503
N     14.66858    7.74258   10.12007
N     12.06169    8.26086   10.31940
O     14.75179    8.57130   12.69367
N     13.76762    5.54879   11.41485
C     14.15193    8.86086    9.30113
H     14.50038    8.75893    8.25543
C     12.65474    8.81243    9.32864
C     15.96318    7.96977   10.74852
H     16.42859    6.99308   10.97659
H     16.68652    8.49064   10.09857
C     15.83625    8.63482   12.09718
C     14.63273    6.47633    9.38559
H     13.84289    6.50948    8.61180
H     15.56872    6.28049    8.82921
C     14.28982    5.32769   10.26778
H     12.09924    9.32262    8.52362
H     14.46409    4.30578    9.88833
H     13.50893    4.72356   11.96546
H     11.03794    8.31447   10.32824
C     14.54623   10.24976    9.79089
H     14.21420   10.42470   10.82385
H     15.62965   10.41030    9.70598
H     14.06841   11.00951    9.15338
C     17.00945    9.30004   12.68349
H     16.89020    9.44182   13.76620
H     17.94122    8.76243   12.44267
H     17.10074   10.29565   12.20673
