24

O     -0.16404    0.62788   -2.52536
N      2.17978    0.36399   -1.24018
H      2.45021    0.36946   -2.22819
H      2.57469   -0.48477   -0.82425
Fe     0.05510    0.36522   -1.14280
H      2.65506    1.14810   -0.78697
P      0.27629    3.03788   -0.55478
H      1.11728    3.57301   -1.56651
H     -0.87528    3.83357   -0.80306
H      0.79082    3.72520    0.58078
P     -0.20068   -2.18094   -1.32815
H     -0.75509   -2.53322   -2.58381
H      0.94590   -3.01171   -1.28481
H     -1.05685   -2.89094   -0.44426
P     -2.21225    0.78420   -0.74237
H     -2.82349    1.62103   -1.72187
H     -2.99428   -0.39397   -0.84477
P      0.07676   -0.14870    1.19827
H      0.10787    0.88621    2.17029
H     -1.00747   -0.92104    1.68702
N     -2.52176    1.27116    0.84009
H     -2.18846    2.20388    1.08243
H     -3.47433    1.14004    1.18954
Br     1.79316   -1.37234    1.73221
