18

O      0.76731   -0.09773   -2.40705
O     -0.35128   -2.07379    0.12753
O      0.38080    2.07764    0.17302
N      2.21760   -0.38966    0.47214
O     -1.87800    0.34074   -0.54394
O     -0.33312    0.05252    1.71435
H     -0.57474   -2.49345    0.97840
H      0.30155    2.53334    1.03091
H      2.81278    0.34621    0.07784
H      2.53556   -1.25920    0.03167
H     -2.16696    1.17628   -0.94383
H     -2.43112   -0.34195   -0.95570
H      0.09815   -0.02801    2.57767
H     -1.27174    0.21562    1.89506
Fe     0.19142   -0.02548   -0.08454
H      2.46244   -0.46046    1.46368
Br     1.19032    3.27759   -0.98475
Br     0.05158   -3.45270   -1.04415
