22

O      0.66036   -0.89408   -2.26536
N      2.79878   -0.75498   -0.41972
H      3.21989   -0.62371   -1.34293
H      3.07628   -1.69324   -0.11662
Fe     0.64836   -0.50153   -0.74976
H      3.26331   -0.09277    0.20717
P      0.74436    1.76590   -1.14333
H      0.11834    2.19135   -2.34491
H      0.11811    2.61863   -0.19621
P     -0.57145   -2.45093   -0.50606
H     -1.46718   -2.72851   -1.56803
H      0.29565   -3.57391   -0.56200
H     -1.34725   -2.75929    0.64204
P     -1.98622    0.47071   -0.94972
H     -2.37131    0.04025   -2.24560
H     -2.94231   -0.23275   -0.16537
H     -2.60801    1.75281   -0.92983
P      0.55063   -0.11227    1.50566
H      0.89295   -1.19679    2.36236
H     -0.72524    0.21432    2.04255
Br     1.82137    1.46867    2.27259
Br     2.73024    2.62667   -1.29668
