36

O      7.70735   22.60346    6.78488
Fe     6.10156   21.76985    5.06694
N      5.32823   20.06640    5.84201
C      5.54113   19.06624    4.76605
C      4.55618   19.26696    3.61937
C      3.68559   21.78432    3.02520
C      4.41430   23.11062    3.24158
N      4.88681   23.33452    4.62051
C      5.68063   20.69457    1.74262
C      7.07930   20.69350    2.29772
O      7.23750   21.62832    3.40072
H      4.73432   18.40091    2.96239
H      3.16073   22.00275    2.07971
H      3.55072   19.08590    4.03251
H      5.51920   21.60783    1.14824
H      5.70098   19.87955    0.99872
H      7.79049   21.00025    1.51353
H      7.38170   19.69436    2.65369
H      5.28293   23.21073    2.57506
H      3.71666   23.92474    2.97886
H      6.58266   19.21261    4.42609
C      4.46565   20.47153    2.65599
H      3.73179   20.04309    1.95438
H      5.84620   19.80183    6.68678
H      4.33931   20.08393    6.11250
H      8.17523   21.85235    3.51549
H      5.38529   24.22697    4.70079
H      4.09252   23.40477    5.26567
C      2.59512   21.56995    4.05952
H      1.94227   22.45441    4.13418
H      1.95040   20.72028    3.79130
H      2.99200   21.36709    5.06814
C      5.43703   17.65975    5.33149
H      5.67517   16.91826    4.55460
H      6.14183   17.51005    6.16462
H      4.41436   17.46126    5.69091
