29

O     -2.53400    2.14466    2.15532
Fe    -2.34806    2.19634   -0.17002
N     -3.60156    3.86165   -0.48121
O     -1.93534    1.69862   -2.01175
N     -0.25862    2.48907   -0.09255
O     -3.61410    0.54783   -0.22225
C     -4.84978    3.63948    0.26672
H     -5.51869    4.50850    0.14517
H     -5.35486    2.74337   -0.11913
H     -4.61744    3.50091    1.32946
C     -2.85459    5.00439    0.06571
H     -1.92485    5.15182   -0.50306
H     -3.45778    5.92587   -0.01106
H     -2.62061    4.81530    1.12178
C     -3.88783    4.05537   -1.90770
H     -4.42965    3.18191   -2.29923
H     -4.52882    4.94318   -2.04875
H     -2.95343    4.21571   -2.46355
H     -1.31125    1.00478   -2.27108
H     -2.51814    1.81556   -2.77573
H      0.14725    2.28188    0.82750
H     -3.85172    0.34260    0.69608
C      0.57420    2.97988   -0.92830
H      1.63437    3.14954   -0.67226
H      0.23443    3.24500   -1.94072
C     -3.79227   -0.61307   -1.04645
H     -3.05308   -1.39136   -0.79191
H     -4.81375   -1.00408   -0.91175
H     -3.66355   -0.29963   -2.08942
