37

O      0.91811    0.39776    3.32146
N      0.16937   -2.00642    0.73362
C      1.07420   -1.95471   -0.42966
H      0.51913   -1.51076   -1.27080
H      1.36776   -2.97519   -0.73437
C     -1.19147   -2.46434    0.39176
H     -1.66599   -2.73008    1.34778
H     -1.15769   -3.37133   -0.23754
C      2.28447   -1.11292   -0.09909
H      2.87762   -1.59148    0.69465
H      2.94557   -1.02318   -0.97706
C     -1.98296   -1.38057   -0.28928
H     -3.03264   -1.69943   -0.40431
H     -1.58969   -1.12149   -1.28875
C      1.71617    1.26109   -0.61718
H      2.70056    1.58158   -1.00139
H      1.15660    0.85827   -1.47515
C     -2.47500    0.98952    0.08832
H     -2.95721    1.47032    0.95141
H     -3.23244    0.79045   -0.68485
C     -1.34541    1.83464   -0.44725
H     -0.89701    1.36719   -1.33587
H     -1.71103    2.83287   -0.75252
C      0.99444    2.43145    0.01211
H      1.58396    2.82764    0.85354
H      0.84451    3.25329   -0.70910
N     -0.29089    1.96895    0.57138
Fe    -0.02442    0.02102    1.42443
N      1.85321    0.20377    0.38499
O     -1.91740   -0.24051    0.57046
H      2.48185    0.52312    1.12484
N      0.63525   -2.73867    1.83947
H      1.46481   -2.29003    2.22448
H      0.87962   -3.69524    1.56116
N     -0.79699    2.66755    1.67619
H     -1.01691    3.63916    1.43026
H     -0.10013    2.65794    2.42166
