45

O     -0.36216   -3.23714    0.40870
Fe    -0.19759   -2.07892    2.09274
N      1.91156   -2.20806    2.56643
N      0.31398   -0.19292    1.28546
N     -2.23454   -1.75094    2.70236
O     -0.13222   -1.93439    4.27185
C     -0.01484   -0.11493   -0.14560
C      1.77119   -0.02778    1.48224
C      2.25952   -0.78039    2.69783
C      2.71595   -2.86362    1.52814
C     -0.42065    0.83096    2.06493
C     -1.92805    0.68157    2.10661
C     -2.46836   -0.34169    3.07878
C     -3.11823   -2.16739    1.60283
C      1.10136   -2.27972    4.88125
C      1.90693   -2.97192    3.81111
C     -1.34332   -2.31320    4.92771
C     -2.34054   -2.65887    3.83935
H     -2.93271   -3.22153    1.36420
H     -4.17092   -2.03580    1.89947
H     -2.90842   -1.56513    0.71202
H      0.26084    0.87563   -0.54552
H      0.52437   -0.90245   -0.68536
H     -1.08777   -0.27512   -0.29801
H      2.02051    1.04202    1.58231
H      2.27824   -0.38126    0.57615
H      2.56188   -2.36572    0.56562
H      3.78520   -2.83190    1.79662
H      2.39235   -3.90524    1.42518
H      1.77876   -0.37451    3.59623
H      3.34885   -0.64683    2.81757
H      2.91978   -3.24571    4.15488
H     -1.18285   -3.20338    5.55421
H     -1.69200   -1.48750    5.56823
H     -2.15186   -3.67502    3.45807
H     -2.01054   -0.17295    4.06178
H     -3.55512   -0.20697    3.20861
H     -2.32236    1.65401    2.44318
H     -2.35039    0.55229    1.09978
H     -0.02111    0.81807    3.09116
H     -0.16354    1.81497    1.63259
H      1.60113   -1.37208    5.26065
H      0.95522   -2.95940    5.73388
Br     0.96993   -4.64978    3.44652
Br    -4.09141   -2.71993    4.64649
