36

O      7.64234   22.56971    6.71532
Fe     6.16657   21.80360    5.13650
N      5.39324   20.10015    5.91157
C      5.60614   19.09999    4.83561
C      4.62119   19.30071    3.68893
C      3.75060   21.81807    3.09476
C      4.47931   23.14437    3.31114
N      4.95182   23.36827    4.69007
C      5.74564   20.72832    1.81218
C      7.14431   20.72725    2.36728
O      7.30251   21.66207    3.47028
H      4.79933   18.43466    3.03195
H      3.22574   22.03650    2.14927
H      3.61573   19.11965    4.10207
H      5.58421   21.64158    1.21780
H      5.76599   19.91330    1.06828
H      7.85550   21.03400    1.58309
H      7.44671   19.72811    2.72325
H      5.34794   23.24448    2.64462
H      3.78167   23.95849    3.04842
H      6.64767   19.24636    4.49565
C      4.53066   20.50528    2.72555
H      3.79680   20.07684    2.02394
H      5.91121   19.83558    6.75634
H      4.40432   20.11768    6.18206
H      8.24024   21.88610    3.58505
H      5.45030   24.26072    4.77035
H      4.15753   23.43852    5.33523
C      2.66013   21.60370    4.12908
H      2.00728   22.48816    4.20374
H      2.01541   20.75403    3.86086
H      3.05701   21.40084    5.13770
C      5.50204   17.69350    5.40105
H      5.74018   16.95201    4.62416
H      6.20684   17.54380    6.23418
H      4.47937   17.49501    5.76047
