33

O      6.82343   22.62950    6.82721
Fe     6.29730   21.79875    5.14388
N      6.05391   19.72874    5.68579
C      5.74598   18.84615    4.55250
C      4.58343   19.28140    3.67574
C      4.00242   21.82315    3.60507
C      4.49503   23.19877    3.17384
N      5.79825   23.46671    3.79501
C      5.92759   20.76230    2.04170
C      7.33462   20.72973    2.58094
N      7.63633   21.21218    3.76159
H      4.47022   18.46987    2.93850
H      2.92436   21.76887    3.37450
H      3.63791   19.24650    4.24536
H      5.86013   21.69299    1.45261
H      5.87263   19.96714    1.28166
H      4.53290   23.28015    2.07779
H      3.76605   23.95344    3.50907
H      5.53114   17.82648    4.91746
H      6.65958   18.76375    3.94692
C      4.64989   20.60010    2.88496
H      3.91633   20.44487    2.07735
H      6.92779   19.42658    6.12610
H      5.35267   19.62967    6.42484
H      8.63240   21.18397    3.98944
H      6.54740   23.54067    3.10708
H      5.79915   24.35110    4.30644
N      8.24978   20.23871    1.74368
H      9.24108   20.24907    1.96562
H      7.99482   19.89004    0.82608
N      4.18667   21.77401    5.05973
H      3.75292   22.58113    5.51668
H      3.73156   20.95244    5.45680
