37

O      1.07742    0.46143    3.64208
N      0.01006   -2.07009    0.41300
C      0.91489   -2.01838   -0.75028
H      0.35982   -1.57443   -1.59142
H      1.20845   -3.03886   -1.05499
C     -1.35078   -2.52801    0.07114
H     -1.82530   -2.79375    1.02716
H     -1.31700   -3.43500   -0.55816
C      2.12516   -1.17659   -0.41971
H      2.71831   -1.65515    0.37403
H      2.78626   -1.08685   -1.29768
C     -2.14227   -1.44424   -0.60990
H     -3.19195   -1.76310   -0.72493
H     -1.74900   -1.18516   -1.60937
C      1.55686    1.19742   -0.93780
H      2.54125    1.51791   -1.32201
H      0.99729    0.79460   -1.79577
C     -2.63431    0.92585   -0.23230
H     -3.11652    1.40665    0.63079
H     -3.39175    0.72678   -1.00547
C     -1.50472    1.77097   -0.76787
H     -1.05632    1.30352   -1.65649
H     -1.87034    2.76920   -1.07314
C      0.83513    2.36778   -0.30851
H      1.42465    2.76397    0.53292
H      0.68520    3.18962   -1.02972
N     -0.45020    1.90528    0.25076
Fe    -0.18373   -0.04265    1.10381
N      1.69390    0.14010    0.06437
O     -2.07671   -0.30418    0.24984
H      2.32254    0.45945    0.80422
N      0.47594   -2.80234    1.51885
H      1.30550   -2.35370    1.90386
H      0.72031   -3.75891    1.24054
N     -0.95630    2.60388    1.35557
H     -1.17622    3.57549    1.10964
H     -0.25944    2.59427    2.10104
