23

O     11.54696    6.92539   13.49895
Fe    13.53283    7.51333   11.35656
N     15.07555    7.84007    9.66779
N     12.45338    8.48865    9.91709
O     14.96678    8.92826   12.13460
N     14.25053    5.65344   10.98421
C     14.56083    8.95334    8.86556
H     15.00859    9.90588    9.20701
H     14.86747    8.87957    7.80676
C     13.08619    9.09096    8.98072
C     16.31884    8.12028   10.35373
H     16.74483    7.16625   10.72182
C     16.06739    8.93784   11.60170
C     15.12227    6.57376    8.93957
H     14.33461    6.55734    8.16691
H     16.08165    6.43757    8.40963
C     14.84146    5.42347    9.86232
H     12.57208    9.74723    8.25698
H     16.91272    9.50932   12.04268
H     14.03560    4.83843   11.56735
H     11.44156    8.65077    9.95840
Br    17.69199    8.91531    9.25972
Br    15.31581    3.75644    9.27551
