23

O     11.74218    6.98319   13.28834
Fe    13.33761    7.45553   11.56717
N     14.88033    7.78227    9.87840
N     12.25816    8.43085   10.12770
O     14.77156    8.87046   12.34521
N     14.05531    5.59564   11.19482
C     14.36561    8.89554    9.07617
H     14.81337    9.84808    9.41762
H     14.67225    8.82177    8.01737
C     12.89097    9.03316    9.19133
C     16.12362    8.06248   10.56434
H     16.54961    7.10845   10.93243
C     15.87217    8.88004   11.81231
C     14.92705    6.51596    9.15018
H     14.13939    6.49954    8.37752
H     15.88643    6.37977    8.62024
C     14.64624    5.36567   10.07293
H     12.37686    9.68943    8.46759
H     16.71750    9.45152   12.25329
H     13.84038    4.78063   11.77796
H     11.24634    8.59297   10.16901
Br    17.49677    8.85751    9.47033
Br    15.12059    3.69864    9.48612
