36

O      7.72035   22.61021    6.79879
Fe     6.08856   21.76310    5.05303
N      5.31523   20.05965    5.82810
C      5.52813   19.05949    4.75214
C      4.54318   19.26021    3.60546
C      3.67259   21.77757    3.01129
C      4.40130   23.10387    3.22767
N      4.87381   23.32777    4.60660
C      5.66763   20.68782    1.72871
C      7.06630   20.68675    2.28381
O      7.22450   21.62157    3.38681
H      4.72132   18.39416    2.94848
H      3.14773   21.99600    2.06580
H      3.53772   19.07915    4.01860
H      5.50620   21.60108    1.13433
H      5.68798   19.87280    0.98481
H      7.77749   20.99350    1.49962
H      7.36870   19.68761    2.63978
H      5.26993   23.20398    2.56115
H      3.70366   23.91799    2.96495
H      6.56966   19.20586    4.41218
C      4.45265   20.46478    2.64208
H      3.71879   20.03634    1.94047
H      5.83320   19.79508    6.67287
H      4.32631   20.07718    6.09859
H      8.16223   21.84560    3.50158
H      5.37229   24.22022    4.68688
H      4.07952   23.39802    5.25176
C      2.58212   21.56320    4.04561
H      1.92927   22.44766    4.12027
H      1.93740   20.71353    3.77739
H      2.97900   21.36034    5.05423
C      5.42403   17.65300    5.31758
H      5.66217   16.91151    4.54069
H      6.12883   17.50330    6.15071
H      4.40136   17.45451    5.67700
