23

O     11.78257    6.99514   13.24477
Fe    13.29722    7.44358   11.61074
N     14.83994    7.77032    9.92197
N     12.21777    8.41890   10.17127
O     14.73117    8.85851   12.38878
N     14.01492    5.58369   11.23839
C     14.32522    8.88359    9.11974
H     14.77298    9.83613    9.46119
H     14.63186    8.80982    8.06094
C     12.85058    9.02121    9.23490
C     16.08323    8.05053   10.60791
H     16.50922    7.09650   10.97600
C     15.83178    8.86809   11.85588
C     14.88666    6.50401    9.19375
H     14.09900    6.48759    8.42109
H     15.84604    6.36782    8.66381
C     14.60585    5.35372   10.11650
H     12.33647    9.67748    8.51116
H     16.67711    9.43957   12.29686
H     13.79999    4.76868   11.82153
H     11.20595    8.58102   10.21258
Br    17.45638    8.84556    9.51390
Br    15.08020    3.68669    9.52969
