19

O      0.66423   -0.17984   -1.88203
O     -0.03149   -2.15882   -0.15964
O      0.53142    2.02913   -0.25701
P      2.73883   -0.40603    0.02053
P     -2.22553    0.28254   -0.92454
O     -0.19929    0.04417    1.85116
H     -0.60587   -2.56999    0.50373
H     -0.13420   -2.68166   -0.97028
H      0.67725    2.47835    0.58952
H      1.16946    2.41691   -0.87841
H      3.28930   -1.47307   -0.73890
H     -2.38730    1.24743   -1.95659
H      0.37968   -0.22737    2.57891
H     -1.02912    0.31306    2.27257
Fe     0.26299   -0.07211   -0.41444
H      3.33632   -0.67622    1.28585
H     -3.31886    0.66526   -0.09332
Br    -2.95938   -1.53617   -1.85346
Br     3.85014    1.32131   -0.66361
