22

O      0.58457   -0.28721   -2.63705
O     -0.66709   -2.13712   -0.38183
O     -0.37416    1.90264    0.35402
P      2.03180   -0.53249    0.42497
O     -2.35339    0.11938   -0.75358
O     -0.76755   -0.13725    1.74867
H     -0.72924   -2.43266    0.54358
H     -0.85204    1.96576    1.26730
H      0.02676    2.73634    0.07431
H      2.95471    0.34891   -0.19068
H      2.46840   -1.79695   -0.03967
H     -2.71514    0.87660   -1.24004
H     -2.86977   -0.64808   -1.04523
H      0.06134   -0.08743    2.25404
Fe    -0.33174   -0.03212   -0.22163
H      2.52666   -0.55004    1.75732
N      0.19404   -3.08776   -1.01502
H     -0.43151   -3.85283   -1.30283
H      0.44633   -2.60182   -1.88377
N     -1.42320    1.10119    2.01296
H     -2.39675    0.90660    1.75224
H     -1.43649    1.24044    3.03273
