23

O     11.89701    7.02903   13.12131
Fe    13.18278    7.40969   11.73420
N     14.72550    7.73643   10.04543
N     12.10333    8.38501   10.29473
O     14.61673    8.82462   12.51224
N     13.90048    5.54980   11.36185
C     14.21078    8.84970    9.24320
H     14.65854    9.80224    9.58465
H     14.51742    8.77593    8.18440
C     12.73614    8.98732    9.35836
C     15.96879    8.01664   10.73137
H     16.39478    7.06261   11.09946
C     15.71734    8.83420   11.97934
C     14.77222    6.47012    9.31721
H     13.98456    6.45370    8.54455
H     15.73160    6.33393    8.78727
C     14.49141    5.31983   10.23996
H     12.22203    9.64359    8.63462
H     16.56267    9.40568   12.42032
H     13.68555    4.73479   11.94499
H     11.09151    8.54713   10.33604
Br    17.34194    8.81167    9.63736
Br    14.96576    3.65280    9.65315
