23

O      0.18759   -0.06611   -1.82846
O     -0.52170   -2.07818   -0.23040
O      0.08708    2.13902   -0.31843
P      2.28548   -0.33058   -0.23458
N     -2.28414    0.31940   -1.02552
O     -0.64925    0.13074    1.73012
H     -0.44904   -2.37325    0.69366
H      0.25540    2.43204    0.59357
H      3.14160    0.61866   -0.84369
H      2.79979   -1.55988   -0.71510
H     -2.63686    1.20825   -0.65732
H     -2.51529    0.33437   -2.02396
H      0.00201    0.06919    2.44469
H     -1.49736    0.26955    2.17863
Fe    -0.15051    0.00693   -0.80450
H      2.80081   -0.33233    1.08994
H     -2.87706   -0.41476   -0.62607
N      1.16517    2.69351   -1.07327
H      0.81768    3.60816   -1.39149
H      1.18033    2.09519   -1.90674
N      0.34449   -2.95293   -0.95283
H      0.52376   -2.42326   -1.81327
H     -0.25295   -3.74360   -1.22961
