23

O      0.39262   -0.59103   -2.43432
O     -0.68205   -2.11864    0.46856
O      0.18933    2.08207   -0.28257
P      2.30972   -0.55754    0.05634
N     -2.37221    0.36514   -0.22571
O     -0.47882    0.27163    1.69224
H     -1.12524   -2.52853    1.22560
H     -0.55941   -2.80794   -0.20128
H      3.16724    0.33118   -0.64201
H      2.77127   -1.79303   -0.46383
H     -2.55700    1.09956   -0.91428
H     -2.88566   -0.45756   -0.55550
H     -0.05123   -0.17854    2.43422
H     -0.23636    1.24145    1.77340
Fe    -0.27385   -0.08157    0.02236
H      2.94239   -0.56589    1.32942
H     -2.82289    0.65314    0.64760
N      0.24389    2.71179    0.98275
H      1.19077    3.09130    1.11489
H     -0.41483    3.50186    0.97497
N      0.49817    2.81617   -1.41346
H     -0.13512    3.62353   -1.46170
H      1.46051    3.16516   -1.32741
