29

O     11.89684    7.18471   13.18018
Fe    13.39532    7.52305   11.64512
N     14.86373    7.78664    9.92016
N     12.25684    8.30492   10.11949
O     14.94694    8.61536   12.49376
N     13.96277    5.59285   11.21494
C     14.34708    8.90492    9.10122
H     14.69553    8.80299    8.05552
C     12.84989    8.85649    9.12873
C     16.15833    8.01383   10.54861
H     16.62374    7.03714   10.77668
H     16.88167    8.53470    9.89866
C     16.03140    8.67888   11.89727
C     14.82788    6.52039    9.18568
H     14.03804    6.55354    8.41189
H     15.76387    6.32455    8.62930
C     14.48497    5.37175   10.06787
H     12.29439    9.36668    8.32371
H     14.65924    4.34984    9.68842
H     13.70408    4.76762   11.76555
H     11.23309    8.35853   10.12833
C     14.74138   10.29382    9.59098
H     14.40935   10.46876   10.62394
H     15.82480   10.45436    9.50607
H     14.26356   11.05357    8.95347
C     17.20460    9.34410   12.48358
H     17.08535    9.48588   13.56629
H     18.13637    8.80649   12.24276
H     17.29589   10.33971   12.00682
