23

O      0.47407    0.02314   -2.70563
O     -0.34171   -2.14590   -0.36927
O      0.07797    2.13762   -0.25050
P      2.12278   -0.06049    0.79212
N     -2.43229    0.33080   -0.06961
O     -0.50235   -0.00774    1.78455
H     -0.29125   -2.72988    0.40104
H     -0.04963   -2.67424   -1.12796
H      0.21245    2.33993    0.69112
H      3.00735    0.01990   -0.31467
H      2.58275   -1.25633    1.39899
H     -2.85315    0.98514    0.59614
H     -2.61070    0.73938   -0.99238
H     -1.32007   -0.07150    2.31196
Fe    -0.29766   -0.02606    0.08833
H      2.65934    0.92699    1.64741
H     -2.99809   -0.52294   -0.03237
N      0.63723   -0.17022    2.58810
H      0.63611    0.57358    3.29585
H      0.55295   -1.05986    3.09300
N      1.30087    2.56617   -0.86762
H      1.15845    3.56836   -1.05404
H      1.24400    2.10899   -1.78554
