54

O      7.30450   22.84552    6.68213
Fe     6.08075   22.17068    4.94135
P      5.89145   20.14197    6.01249
C      5.16069   18.84544    4.93899
C      4.14101   19.52148    4.04393
P      4.95916   21.01381    3.39172
C      3.70894   22.16270    2.75621
C      4.24766   23.56235    2.96752
N      4.90124   23.81205    4.27593
C      6.06467   20.47707    2.02462
C      7.49882   20.43998    2.52188
P      7.82806   22.01072    3.40735
C      9.43754   21.87297    4.21043
C      8.10047   23.21139    2.07578
H      3.77955   18.87652    3.22617
H      3.50727   21.98311    1.68774
H      2.77600   21.97241    3.30079
H      3.26369   19.86100    4.61874
H      5.94858   21.20853    1.20828
H      5.72568   19.50318    1.63534
H      8.21935   20.29028    1.70052
H      7.64870   19.62291    3.24519
H      8.90591   22.83659    1.42297
H      7.19373   23.36226    1.47449
H      8.41539   24.17337    2.50636
H     10.21635   21.63401    3.46869
H      9.66082   22.83799    4.69038
H      9.41102   21.10485    4.99286
H      5.01767   23.75530    2.20683
H      3.45360   24.31282    2.80885
C      3.94492   24.03979    5.37829
H      4.55490   24.34201    6.23775
H      3.30089   24.90076    5.12221
C      5.73371   25.03442    4.07445
H      6.44266   24.77947    3.27736
H      5.06400   25.81258    3.66250
H      4.72394   18.03998    5.55193
H      5.97733   18.40031    4.34799
C      4.88184   20.15909    7.51106
H      3.82977   20.36206    7.26965
H      4.96008   19.17547    8.00165
H      5.25680   20.93920    8.18663
C      7.50818   19.54009    6.53235
H      7.38658   18.60711    7.10612
H      8.13616   19.34319    5.65337
H      7.98256   20.31195    7.15540
C      6.47462   25.58195    5.26356
H      5.80594   25.97539    6.04196
H      7.14268   24.83272    5.70717
H      7.08370   26.43052    4.91543
C      3.12199   22.83244    5.75384
H      2.73442   22.94702    6.77649
H      2.26045   22.66704    5.09460
H      3.75663   21.92937    5.73548
