33

O      6.91066   22.76724    7.10631
Fe     6.21007   21.66101    4.86478
N      5.96668   19.59100    5.40669
C      5.65875   18.70841    4.27340
C      4.49620   19.14366    3.39664
C      3.91519   21.68541    3.32597
C      4.40780   23.06103    2.89474
N      5.71102   23.32897    3.51591
C      5.84036   20.62456    1.76260
C      7.24739   20.59199    2.30184
N      7.54910   21.07444    3.48249
H      4.38299   18.33213    2.65940
H      2.83713   21.63113    3.09540
H      3.55068   19.10876    3.96626
H      5.77290   21.55525    1.17351
H      5.78540   19.82940    1.00256
H      4.44567   23.14241    1.79869
H      3.67882   23.81570    3.22997
H      5.44391   17.68874    4.63836
H      6.57235   18.62601    3.66782
C      4.56266   20.46236    2.60586
H      3.82910   20.30713    1.79825
H      6.84056   19.28884    5.84700
H      5.26544   19.49193    6.14574
H      8.54517   21.04623    3.71034
H      6.46017   23.40293    2.82798
H      5.71192   24.21336    4.02734
N      8.16255   20.10097    1.46458
H      9.15385   20.11133    1.68652
H      7.90759   19.75230    0.54698
N      4.09944   21.63627    4.78063
H      3.66569   22.44339    5.23758
H      3.64433   20.81470    5.17770
