36

O      7.79837   22.65071    6.88225
Fe     6.01054   21.72260    4.96957
N      5.23721   20.01915    5.74464
C      5.45011   19.01899    4.66868
C      4.46516   19.21971    3.52200
C      3.59457   21.73707    2.92783
C      4.32328   23.06337    3.14421
N      4.79579   23.28727    4.52314
C      5.58961   20.64732    1.64525
C      6.98828   20.64625    2.20035
O      7.14648   21.58107    3.30335
H      4.64330   18.35366    2.86502
H      3.06971   21.95550    1.98234
H      3.45970   19.03865    3.93514
H      5.42818   21.56058    1.05087
H      5.60996   19.83230    0.90135
H      7.69947   20.95300    1.41616
H      7.29068   19.64711    2.55632
H      5.19191   23.16348    2.47769
H      3.62564   23.87749    2.88149
H      6.49164   19.16536    4.32872
C      4.37463   20.42428    2.55862
H      3.64077   19.99584    1.85701
H      5.75518   19.75458    6.58941
H      4.24829   20.03668    6.01513
H      8.08421   21.80510    3.41812
H      5.29427   24.17972    4.60342
H      4.00150   23.35752    5.16830
C      2.50410   21.52270    3.96215
H      1.85125   22.40716    4.03681
H      1.85938   20.67303    3.69393
H      2.90098   21.31984    4.97077
C      5.34601   17.61250    5.23412
H      5.58415   16.87101    4.45723
H      6.05081   17.46280    6.06725
H      4.32334   17.41401    5.59354
