14

H 0.000000 0.000000 0.000000
H 0.000000 0.000000 0.648485
H 0.000000 0.000000 1.296970
H 0.000000 0.000000 1.945455
H 0.000000 0.000000 2.593939
H 0.000000 0.000000 3.242424
H 0.000000 0.000000 3.890909
H 0.000000 0.000000 4.539394
H 0.000000 0.000000 5.187879
H 0.000000 0.000000 5.836364
H 0.000000 0.000000 6.484848
H 0.000000 0.000000 7.133333
H 0.000000 0.000000 7.781818
H 0.000000 0.000000 8.430303
