52

O      7.31838   23.02329    5.91421
Fe     6.43091   22.23501    5.05618
N      6.08323   20.50512    6.17684
C      5.82738   19.33103    5.31009
C      4.75663   19.60763    4.27009
P      5.16675   21.22626    3.57256
C      3.77303   22.30820    3.18199
C      4.34971   23.70161    3.34392
N      5.09444   23.86629    4.61612
C      6.20331   20.94335    2.04932
C      7.61797   20.76723    2.59021
N      7.97405   21.74953    3.62439
C      9.21596   21.34794    4.29530
C      8.14957   23.08174    3.03642
H      4.73477   18.84730    3.47286
H      3.40156   22.13526    2.15851
H      2.94028   22.10537    3.87265
H      3.74581   19.64648    4.70422
H      6.12932   21.89388    1.49544
H      8.34756   20.81157    1.76133
H      7.70230   19.76534    3.03700
H      8.94650   23.06858    2.27177
H      7.21548   23.40840    2.56264
H      8.42470   23.78691    3.83140
H     10.05906   21.36257    3.58324
H      9.41467   22.04101    5.12249
H      9.10992   20.32768    4.68347
H      5.05821   23.90996    2.52822
H      3.55900   24.47046    3.28016
C      4.16942   23.86736    5.75610
H      4.74318   23.97219    6.68521
H      3.46379   24.71283    5.67813
H      3.59491   22.93541    5.78411
C      5.80797   25.15349    4.59205
H      6.39945   25.25547    5.50872
H      6.48147   25.19366    3.72925
H      5.08298   25.98146    4.51524
H      5.53940   18.48695    5.96047
H      6.77949   19.06708    4.83053
C      4.86601   20.76251    7.04634
H      4.06205   21.04800    6.35427
H      5.13681   21.64973    7.63815
C      7.22296   20.21034    7.05800
H      6.99944   19.31668    7.66220
H      8.12004   20.02231    6.46013
H      7.40985   21.06852    7.71294
N      5.69359   19.88398    1.25842
H      5.60884   20.09357    0.26844
H      6.16828   18.99479    1.38491
N      4.51416   19.64683    7.82067
H      3.58966   19.26387    7.66281
H      4.72404   19.70113    8.81099
