36

O      7.42780   22.45834    6.48580
Fe     6.38111   21.91497    5.36602
N      5.60778   20.21152    6.14109
C      5.82068   19.21136    5.06513
C      4.83573   19.41208    3.91845
C      3.96514   21.92944    3.32428
C      4.69385   23.25574    3.54066
N      5.16636   23.47964    4.91959
C      5.96018   20.83969    2.04170
C      7.35885   20.83862    2.59680
O      7.51705   21.77344    3.69980
H      5.01387   18.54603    3.26147
H      3.44028   22.14787    2.37879
H      3.83027   19.23102    4.33159
H      5.79875   21.75295    1.44732
H      5.98053   20.02467    1.29780
H      8.07004   21.14537    1.81261
H      7.66125   19.83948    2.95277
H      5.56248   23.35585    2.87414
H      3.99621   24.06986    3.27794
H      6.86221   19.35773    4.72517
C      4.74520   20.61665    2.95507
H      4.01134   20.18821    2.25346
H      6.12575   19.94695    6.98586
H      4.61886   20.22905    6.41158
H      8.45478   21.99747    3.81457
H      5.66484   24.37209    4.99987
H      4.37207   23.54989    5.56475
C      2.87467   21.71507    4.35860
H      2.22182   22.59953    4.43326
H      2.22995   20.86540    4.09038
H      3.27155   21.51221    5.36722
C      5.71658   17.80487    5.63057
H      5.95472   17.06338    4.85368
H      6.42138   17.65517    6.46370
H      4.69391   17.60638    5.98999
