22

O      0.56338   -0.09039   -2.39648
O     -0.13176   -2.17943   -0.07121
O      0.10773    2.16127   -0.26153
P      2.25520   -0.28106    0.42758
O     -2.15659   -0.03845   -0.35528
O     -0.64106    0.01076    1.68341
H     -0.22828   -2.85443   -0.76923
H      0.53141    2.57598    0.50515
H      0.36283    2.70154   -1.02613
H      3.16531    0.76501    0.12790
H      2.89758   -1.37558   -0.20227
H     -2.73240    0.34696   -1.03041
H     -2.43763    0.29222    0.59977
H     -0.79213   -1.01458    1.66698
Fe    -0.11636    0.05798   -0.31791
H      2.56365   -0.52422    1.79148
N     -0.93253   -2.47185    1.03290
H     -1.88513   -2.68965    0.71559
H     -0.54582   -3.29455    1.51254
N     -1.94509    0.54948    1.82075
H     -2.37163    0.13016    2.65796
H     -1.79979    1.53586    2.06131
