24

O     -0.19823    0.66887   -2.74107
N      2.21397    0.32300   -1.02447
H      2.48440    0.32847   -2.01248
H      2.60888   -0.52576   -0.60854
Fe     0.08929    0.32423   -0.92709
H      2.68925    1.10711   -0.57126
P      0.27629    3.03788   -0.55478
H      1.11728    3.57301   -1.56651
H     -0.87528    3.83357   -0.80306
H      0.79082    3.72520    0.58078
P     -0.20068   -2.18094   -1.32815
H     -0.75509   -2.53322   -2.58381
H      0.94590   -3.01171   -1.28481
H     -1.05685   -2.89094   -0.44426
P     -2.17806    0.74321   -0.52666
H     -2.78930    1.58004   -1.50616
H     -2.96009   -0.43496   -0.62906
P      0.11095   -0.18969    1.41398
H      0.14206    0.84522    2.38600
H     -0.97328   -0.96203    1.90273
N     -2.48757    1.23017    1.05580
H     -2.15427    2.16289    1.29814
H     -3.44014    1.09905    1.40525
Br     1.82735   -1.41333    1.94792
