53

O      5.88940   23.14580    7.27860
Fe     6.38421   22.43674    5.44160
P      6.04675   20.28456    5.96957
C      5.81125   19.00109    4.69446
C      4.74410   19.17695    3.61751
C      4.23713   21.64844    3.57626
C      4.47085   23.04966    3.01390
P      5.10291   23.99330    4.43628
C      5.93223   20.64236    1.86978
C      7.31541   20.72528    2.48690
P      7.68890   22.07472    3.65051
C      9.29584   21.59386    4.34921
C      8.12169   23.48034    2.58719
H      4.83991   18.31284    2.94048
H      4.99862   21.61734    4.47949
H      3.76265   19.04306    4.09831
H      5.76837   21.50841    1.20931
H      5.95754   19.78268    1.17971
H      8.06488   20.83690    1.68398
H      7.58208   19.79763    3.00727
H      8.95410   23.18918    1.92675
H      7.27059   23.78542    1.96395
H      8.44075   24.32940    3.20916
H     10.02661   21.41693    3.54318
H      9.67382   22.39818    4.99976
H      9.17878   20.67793    4.94514
H      5.26197   23.03839    2.25387
H      3.57085   23.48437    2.54901
C      3.69443   24.29571    5.52187
H      4.05821   24.85483    6.39661
H      2.92194   24.87957    4.99598
H      3.28224   23.34042    5.87233
C      5.64139   25.63064    3.90911
H      6.04566   26.16362    4.78432
H      6.41149   25.57703    3.13083
H      4.76985   26.18727    3.52689
H      5.55104   18.10240    5.28282
H      6.80315   18.78242    4.27551
C      4.38032   20.34373    6.86859
H      3.68704   20.81395    6.14965
H      4.09982   19.27866    6.95988
C      7.16558   19.53277    7.17299
H      6.77838   18.54460    7.47120
H      8.17583   19.41499    6.75582
H      7.21963   20.18996    8.05108
C      4.70682   20.44180    2.75345
H      3.88151   20.27791    2.03601
N      4.36522   20.98804    8.10887
H      4.60627   21.97934    8.06554
H      4.84212   20.50692    8.86552
N      2.94094   21.49185    4.09107
H      2.30382   22.27027    3.97316
H      2.48814   20.59924    3.92990
