23

O      0.30735    0.01251   -2.10205
O     -0.34171   -2.14590   -0.36927
O      0.07797    2.13762   -0.25050
P      2.28950   -0.04986    0.18854
N     -2.26557    0.34143   -0.67319
O     -0.50235   -0.00774    1.78455
H     -0.29125   -2.72988    0.40104
H     -0.04963   -2.67424   -1.12796
H      0.21245    2.33993    0.69112
H      3.17407    0.03053   -0.91825
H      2.74947   -1.24570    0.79541
H     -2.68643    0.99577   -0.00744
H     -2.44398    0.75001   -1.59596
H     -1.32007   -0.07150    2.31196
Fe    -0.13094   -0.01543   -0.51525
H      2.82606    0.93762    1.04383
H     -2.83137   -0.51231   -0.63595
N      0.63723   -0.17022    2.58810
H      0.63611    0.57358    3.29585
H      0.55295   -1.05986    3.09300
N      1.30087    2.56617   -0.86762
H      1.15845    3.56836   -1.05404
H      1.24400    2.10899   -1.78554
