29

O     11.61805    7.12176   13.46578
Fe    13.67411    7.58600   11.35952
N     15.14252    7.84959    9.63456
N     12.53563    8.36787    9.83389
O     15.22573    8.67831   12.20816
N     14.24156    5.65580   10.92934
C     14.62587    8.96787    8.81562
H     14.97432    8.86594    7.76992
C     13.12868    8.91944    8.84313
C     16.43712    8.07678   10.26301
H     16.90253    7.10009   10.49108
H     17.16046    8.59765    9.61306
C     16.31019    8.74183   11.61167
C     15.10667    6.58334    8.90008
H     14.31683    6.61649    8.12629
H     16.04266    6.38750    8.34370
C     14.76376    5.43470    9.78227
H     12.57318    9.42963    8.03811
H     14.93803    4.41279    9.40282
H     13.98287    4.83057   11.47995
H     11.51188    8.42148    9.84273
C     15.02017   10.35677    9.30538
H     14.68814   10.53171   10.33834
H     16.10359   10.51731    9.22047
H     14.54235   11.11652    8.66787
C     17.48339    9.40705   12.19798
H     17.36414    9.54883   13.28069
H     18.41516    8.86944   11.95716
H     17.57468   10.40266   11.72122
