33

O      6.76891   22.54341    6.65277
Fe     6.35182   21.88484    5.31832
N      6.10843   19.81483    5.86023
C      5.80050   18.93224    4.72694
C      4.63795   19.36749    3.85018
C      4.05694   21.90924    3.77951
C      4.54955   23.28486    3.34828
N      5.85277   23.55280    3.96945
C      5.98211   20.84839    2.21614
C      7.38914   20.81582    2.75538
N      7.69085   21.29827    3.93603
H      4.52474   18.55596    3.11294
H      2.97888   21.85496    3.54894
H      3.69243   19.33259    4.41980
H      5.91465   21.77908    1.62705
H      5.92715   20.05323    1.45610
H      4.58742   23.36624    2.25223
H      3.82057   24.03953    3.68351
H      5.58566   17.91257    5.09190
H      6.71410   18.84984    4.12136
C      4.70441   20.68619    3.05940
H      3.97085   20.53096    2.25179
H      6.98231   19.51267    6.30054
H      5.40719   19.71576    6.59928
H      8.68692   21.27006    4.16388
H      6.60192   23.62676    3.28152
H      5.85367   24.43719    4.48088
N      8.30430   20.32480    1.91812
H      9.29560   20.33516    2.14006
H      8.04934   19.97613    1.00052
N      4.24119   21.86010    5.23417
H      3.80744   22.66722    5.69112
H      3.78608   21.03853    5.63124
