29

O     -2.50502    2.15271    1.79293
Fe    -2.37704    2.18829    0.19237
N     -3.63054    3.85360   -0.11882
O     -1.93534    1.69862   -2.01175
N     -0.28760    2.48102    0.26984
O     -3.64308    0.53978    0.14014
C     -4.87876    3.63143    0.62911
H     -5.54767    4.50045    0.50756
H     -5.38384    2.73532    0.24326
H     -4.64642    3.49286    1.69185
C     -2.88357    4.99634    0.42810
H     -1.95383    5.14377   -0.14067
H     -3.48676    5.91782    0.35133
H     -2.64959    4.80725    1.48417
C     -3.91681    4.04732   -1.54531
H     -4.45863    3.17386   -1.93684
H     -4.55780    4.93513   -1.68636
H     -2.98241    4.20766   -2.10116
H     -1.31125    1.00478   -2.27108
H     -2.51814    1.81556   -2.77573
H      0.11827    2.27383    1.18989
H     -3.88070    0.33455    1.05847
C      0.54522    2.97183   -0.56591
H      1.60539    3.14149   -0.30987
H      0.20545    3.23695   -1.57833
C     -3.82125   -0.62112   -0.68406
H     -3.08206   -1.39941   -0.42952
H     -4.84273   -1.01213   -0.54936
H     -3.69253   -0.30768   -1.72703
