33

O      6.76073   22.53050    6.62660
Fe     6.36000   21.89775    5.34449
N      6.11661   19.82774    5.88640
C      5.80868   18.94515    4.75311
C      4.64613   19.38040    3.87635
C      4.06512   21.92215    3.80568
C      4.55773   23.29777    3.37445
N      5.86095   23.56571    3.99562
C      5.99029   20.86130    2.24231
C      7.39732   20.82873    2.78155
N      7.69903   21.31118    3.96220
H      4.53292   18.56887    3.13911
H      2.98706   21.86787    3.57511
H      3.70061   19.34550    4.44597
H      5.92283   21.79199    1.65322
H      5.93533   20.06614    1.48227
H      4.59560   23.37915    2.27840
H      3.82875   24.05244    3.70968
H      5.59384   17.92548    5.11807
H      6.72228   18.86275    4.14753
C      4.71259   20.69910    3.08557
H      3.97903   20.54387    2.27796
H      6.99049   19.52558    6.32671
H      5.41537   19.72867    6.62545
H      8.69510   21.28297    4.19005
H      6.61010   23.63967    3.30769
H      5.86185   24.45010    4.50705
N      8.31248   20.33771    1.94429
H      9.30378   20.34807    2.16623
H      8.05752   19.98904    1.02669
N      4.24937   21.87301    5.26034
H      3.81562   22.68013    5.71729
H      3.79426   21.05144    5.65741
