53

O      5.78601   23.29396    7.66245
Fe     6.48760   22.28858    5.05775
P      6.15014   20.13640    5.58572
C      5.91464   18.85293    4.31061
C      4.84749   19.02879    3.23366
C      4.34052   21.50028    3.19241
C      4.57424   22.90150    2.63005
P      5.20630   23.84514    4.05243
C      6.03562   20.49420    1.48593
C      7.41880   20.57712    2.10305
P      7.79229   21.92656    3.26666
C      9.39923   21.44570    3.96536
C      8.22508   23.33218    2.20334
H      4.94330   18.16468    2.55663
H      5.10201   21.46918    4.09564
H      3.86604   18.89490    3.71446
H      5.87176   21.36025    0.82546
H      6.06093   19.63452    0.79586
H      8.16827   20.68874    1.30013
H      7.68547   19.64947    2.62342
H      9.05749   23.04102    1.54290
H      7.37398   23.63726    1.58010
H      8.54414   24.18124    2.82531
H     10.13000   21.26877    3.15933
H      9.77721   22.25002    4.61591
H      9.28217   20.52977    4.56129
H      5.36536   22.89023    1.87002
H      3.67424   23.33621    2.16516
C      3.79782   24.14755    5.13802
H      4.16160   24.70667    6.01276
H      3.02533   24.73141    4.61213
H      3.38563   23.19226    5.48848
C      5.74478   25.48248    3.52526
H      6.14905   26.01546    4.40047
H      6.51488   25.42887    2.74698
H      4.87324   26.03911    3.14304
H      5.65443   17.95424    4.89897
H      6.90654   18.63426    3.89166
C      4.48371   20.19557    6.48474
H      3.79043   20.66579    5.76580
H      4.20321   19.13050    6.57603
C      7.26897   19.38461    6.78914
H      6.88177   18.39644    7.08735
H      8.27922   19.26683    6.37197
H      7.32302   20.04180    7.66723
C      4.81021   20.29364    2.36960
H      3.98490   20.12975    1.65216
N      4.46861   20.83988    7.72502
H      4.70966   21.83118    7.68169
H      4.94551   20.35876    8.48167
N      3.04433   21.34369    3.70722
H      2.40721   22.12211    3.58931
H      2.59153   20.45108    3.54605
