33

O      6.80707   22.60367    6.77488
Fe     6.31366   21.82458    5.19621
N      6.07027   19.75457    5.73812
C      5.76234   18.87198    4.60483
C      4.59979   19.30723    3.72807
C      4.01878   21.84898    3.65740
C      4.51139   23.22460    3.22617
N      5.81461   23.49254    3.84734
C      5.94395   20.78813    2.09403
C      7.35098   20.75556    2.63327
N      7.65269   21.23801    3.81392
H      4.48658   18.49570    2.99083
H      2.94072   21.79470    3.42683
H      3.65427   19.27233    4.29769
H      5.87649   21.71882    1.50494
H      5.88899   19.99297    1.33399
H      4.54926   23.30598    2.13012
H      3.78241   23.97927    3.56140
H      5.54750   17.85231    4.96979
H      6.67594   18.78958    3.99925
C      4.66625   20.62593    2.93729
H      3.93269   20.47070    2.12968
H      6.94415   19.45241    6.17843
H      5.36903   19.65550    6.47717
H      8.64876   21.20980    4.04177
H      6.56376   23.56650    3.15941
H      5.81551   24.37693    4.35877
N      8.26614   20.26454    1.79601
H      9.25744   20.27490    2.01795
H      8.01118   19.91587    0.87841
N      4.20303   21.79984    5.11206
H      3.76928   22.60696    5.56901
H      3.74792   20.97827    5.50913
