23

O     11.62774    6.94930   13.41180
Fe    13.45205    7.48942   11.44371
N     14.99477    7.81616    9.75494
N     12.37260    8.46474   10.00424
O     14.88600    8.90435   12.22175
N     14.16975    5.62953   11.07136
C     14.48005    8.92943    8.95271
H     14.92781    9.88197    9.29416
H     14.78669    8.85566    7.89391
C     13.00541    9.06705    9.06787
C     16.23806    8.09637   10.44088
H     16.66405    7.14234   10.80897
C     15.98661    8.91393   11.68885
C     15.04149    6.54985    9.02672
H     14.25383    6.53343    8.25406
H     16.00087    6.41366    8.49678
C     14.76068    5.39956    9.94947
H     12.49130    9.72332    8.34413
H     16.83194    9.48541   12.12983
H     13.95482    4.81452   11.65450
H     11.36078    8.62686   10.04555
Br    17.61121    8.89140    9.34687
Br    15.23503    3.73253    9.36266
