24

O     -0.15316    0.61484   -2.45672
N      2.16890    0.37703   -1.30882
H      2.43933    0.38250   -2.29683
H      2.56381   -0.47173   -0.89289
Fe     0.04422    0.37826   -1.21144
H      2.64418    1.16114   -0.85561
P      0.27629    3.03788   -0.55478
H      1.11728    3.57301   -1.56651
H     -0.87528    3.83357   -0.80306
H      0.79082    3.72520    0.58078
P     -0.20068   -2.18094   -1.32815
H     -0.75509   -2.53322   -2.58381
H      0.94590   -3.01171   -1.28481
H     -1.05685   -2.89094   -0.44426
P     -2.22313    0.79724   -0.81101
H     -2.83437    1.63407   -1.79051
H     -3.00516   -0.38093   -0.91341
P      0.06588   -0.13566    1.12963
H      0.09699    0.89925    2.10165
H     -1.01835   -0.90800    1.61838
N     -2.53264    1.28420    0.77145
H     -2.19934    2.21692    1.01379
H     -3.48521    1.15308    1.12090
Br     1.78228   -1.35930    1.66357
