22

O      0.66353   -0.99792   -2.66626
N      2.79878   -0.75498   -0.41972
H      3.21989   -0.62371   -1.34293
H      3.07628   -1.69324   -0.11662
Fe     0.64519   -0.39769   -0.34886
H      3.26331   -0.09277    0.20717
P      0.74119    1.86974   -0.74243
H      0.11517    2.29519   -1.94401
H      0.11494    2.72247    0.20469
P     -0.57462   -2.34709   -0.10516
H     -1.47035   -2.62467   -1.16713
H      0.29248   -3.47007   -0.16110
H     -1.35042   -2.65545    1.04294
P     -1.98622    0.47071   -0.94972
H     -2.37131    0.04025   -2.24560
H     -2.94231   -0.23275   -0.16537
H     -2.60801    1.75281   -0.92983
P      0.54746   -0.00843    1.90656
H      0.88978   -1.09295    2.76326
H     -0.72841    0.31816    2.44345
Br     1.81820    1.57251    2.67349
Br     2.72707    2.73051   -0.89578
