29

O     -2.48087    2.15942    1.49094
Fe    -2.40119    2.18158    0.49436
N     -3.65469    3.84689    0.18317
O     -1.93534    1.69862   -2.01175
N     -0.31175    2.47431    0.57183
O     -3.66723    0.53307    0.44213
C     -4.90291    3.62472    0.93110
H     -5.57182    4.49374    0.80955
H     -5.40799    2.72861    0.54525
H     -4.67057    3.48615    1.99384
C     -2.90772    4.98963    0.73009
H     -1.97798    5.13706    0.16132
H     -3.51091    5.91111    0.65332
H     -2.67374    4.80054    1.78616
C     -3.94096    4.04061   -1.24332
H     -4.48278    3.16715   -1.63485
H     -4.58195    4.92842   -1.38437
H     -3.00656    4.20095   -1.79917
H     -1.31125    1.00478   -2.27108
H     -2.51814    1.81556   -2.77573
H      0.09412    2.26712    1.49188
H     -3.90485    0.32784    1.36046
C      0.52107    2.96512   -0.26392
H      1.58124    3.13478   -0.00788
H      0.18130    3.23024   -1.27634
C     -3.84540   -0.62783   -0.38207
H     -3.10621   -1.40612   -0.12753
H     -4.86688   -1.01884   -0.24737
H     -3.71668   -0.31439   -1.42504
