24

O     -0.28060    0.76760   -3.26076
N      2.29634    0.22427   -0.50478
H      2.56677    0.22974   -1.49279
H      2.69125   -0.62449   -0.08885
Fe     0.17166    0.22550   -0.40740
H      2.77162    1.00838   -0.05157
P      0.27629    3.03788   -0.55478
H      1.11728    3.57301   -1.56651
H     -0.87528    3.83357   -0.80306
H      0.79082    3.72520    0.58078
P     -0.20068   -2.18094   -1.32815
H     -0.75509   -2.53322   -2.58381
H      0.94590   -3.01171   -1.28481
H     -1.05685   -2.89094   -0.44426
P     -2.09569    0.64448   -0.00697
H     -2.70693    1.48131   -0.98647
H     -2.87772   -0.53369   -0.10937
P      0.19332   -0.28842    1.93367
H      0.22443    0.74649    2.90569
H     -0.89091   -1.06076    2.42242
N     -2.40520    1.13144    1.57549
H     -2.07190    2.06416    1.81783
H     -3.35777    1.00032    1.92494
Br     1.90972   -1.51206    2.46761
