45

O     -0.34514   -3.11733    0.58291
Fe    -0.21461   -2.19873    1.91853
N      1.89454   -2.32787    2.39222
N      0.29696   -0.31273    1.11125
N     -2.25156   -1.87075    2.52815
O     -0.14924   -2.05420    4.09764
C     -0.03186   -0.23474   -0.31981
C      1.75417   -0.14759    1.30803
C      2.24250   -0.90020    2.52362
C      2.69893   -2.98343    1.35393
C     -0.43767    0.71115    1.89072
C     -1.94507    0.56176    1.93240
C     -2.48538   -0.46150    2.90457
C     -3.13525   -2.28720    1.42862
C      1.08434   -2.39953    4.70704
C      1.88991   -3.09173    3.63690
C     -1.36034   -2.43301    4.75350
C     -2.35756   -2.77868    3.66514
H     -2.94973   -3.34134    1.18999
H     -4.18794   -2.15561    1.72526
H     -2.92544   -1.68494    0.53781
H      0.24382    0.75582   -0.71973
H      0.50735   -1.02226   -0.85957
H     -1.10479   -0.39493   -0.47222
H      2.00349    0.92221    1.40810
H      2.26122   -0.50107    0.40194
H      2.54486   -2.48553    0.39141
H      3.76818   -2.95171    1.62241
H      2.37533   -4.02505    1.25097
H      1.76174   -0.49432    3.42202
H      3.33183   -0.76664    2.64336
H      2.90276   -3.36552    3.98067
H     -1.19987   -3.32319    5.38000
H     -1.70902   -1.60731    5.39402
H     -2.16888   -3.79483    3.28386
H     -2.02756   -0.29276    3.88757
H     -3.57214   -0.32678    3.03440
H     -2.33938    1.53420    2.26897
H     -2.36741    0.43248    0.92557
H     -0.03813    0.69826    2.91695
H     -0.18056    1.69516    1.45838
H      1.58411   -1.49189    5.08644
H      0.93820   -3.07921    5.55967
Br     0.95291   -4.76959    3.27231
Br    -4.10843   -2.83974    4.47228
