16

H 0.000000 0.000000 0.000000
H 0.000000 0.000000 2.854545
H 0.000000 0.000000 5.709091
H 0.000000 0.000000 8.563636
H 0.000000 0.000000 11.418182
H 0.000000 0.000000 14.272727
H 0.000000 0.000000 17.127273
H 0.000000 0.000000 19.981818
H 0.000000 0.000000 22.836364
H 0.000000 0.000000 25.690909
H 0.000000 0.000000 28.545455
H 0.000000 0.000000 31.400000
H 0.000000 0.000000 34.254545
H 0.000000 0.000000 37.109091
H 0.000000 0.000000 39.963636
H 0.000000 0.000000 42.818182
