37

O      0.93139    0.40306    3.34818
N      0.15609   -2.01172    0.70690
C      1.06092   -1.96001   -0.45638
H      0.50585   -1.51606   -1.29752
H      1.35448   -2.98049   -0.76109
C     -1.20475   -2.46964    0.36504
H     -1.67927   -2.73538    1.32106
H     -1.17097   -3.37663   -0.26426
C      2.27119   -1.11822   -0.12581
H      2.86434   -1.59678    0.66793
H      2.93229   -1.02848   -1.00378
C     -1.99624   -1.38587   -0.31600
H     -3.04592   -1.70473   -0.43103
H     -1.60297   -1.12679   -1.31547
C      1.70289    1.25579   -0.64390
H      2.68728    1.57628   -1.02811
H      1.14332    0.85297   -1.50187
C     -2.48828    0.98422    0.06160
H     -2.97049    1.46502    0.92469
H     -3.24572    0.78515   -0.71157
C     -1.35869    1.82934   -0.47397
H     -0.91029    1.36189   -1.36259
H     -1.72431    2.82757   -0.77924
C      0.98116    2.42615   -0.01461
H      1.57068    2.82234    0.82682
H      0.83123    3.24799   -0.73582
N     -0.30417    1.96365    0.54466
Fe    -0.03770    0.01572    1.39771
N      1.83993    0.19847    0.35827
O     -1.93068   -0.24581    0.54374
H      2.46857    0.51782    1.09812
N      0.62197   -2.74397    1.81275
H      1.45153   -2.29533    2.19776
H      0.86634   -3.70054    1.53444
N     -0.81027    2.66225    1.64947
H     -1.03019    3.63386    1.40354
H     -0.11341    2.65264    2.39494
