24

O     -0.18735    0.65583   -2.67244
N      2.20309    0.33604   -1.09310
H      2.47352    0.34151   -2.08111
H      2.59800   -0.51272   -0.67717
Fe     0.07841    0.33727   -0.99572
H      2.67837    1.12015   -0.63989
P      0.27629    3.03788   -0.55478
H      1.11728    3.57301   -1.56651
H     -0.87528    3.83357   -0.80306
H      0.79082    3.72520    0.58078
P     -0.20068   -2.18094   -1.32815
H     -0.75509   -2.53322   -2.58381
H      0.94590   -3.01171   -1.28481
H     -1.05685   -2.89094   -0.44426
P     -2.18894    0.75625   -0.59529
H     -2.80018    1.59308   -1.57479
H     -2.97097   -0.42192   -0.69769
P      0.10007   -0.17665    1.34535
H      0.13118    0.85826    2.31737
H     -0.98416   -0.94899    1.83410
N     -2.49845    1.24321    0.98717
H     -2.16515    2.17593    1.22951
H     -3.45102    1.11209    1.33662
Br     1.81647   -1.40029    1.87929
