45

O     -0.39459   -3.46536    0.07687
Fe    -0.16516   -1.85070    2.42457
N      1.94399   -1.97984    2.89826
N      0.34641    0.03530    1.61729
N     -2.20211   -1.52272    3.03419
O     -0.09979   -1.70617    4.60368
C      0.01759    0.11329    0.18623
C      1.80362    0.20044    1.81407
C      2.29195   -0.55217    3.02966
C      2.74838   -2.63540    1.85997
C     -0.38822    1.05918    2.39676
C     -1.89562    0.90979    2.43844
C     -2.43593   -0.11347    3.41061
C     -3.08580   -1.93917    1.93466
C      1.13379   -2.05150    5.21308
C      1.93936   -2.74370    4.14294
C     -1.31089   -2.08498    5.25954
C     -2.30811   -2.43065    4.17118
H     -2.90028   -2.99331    1.69603
H     -4.13849   -1.80758    2.23130
H     -2.87599   -1.33691    1.04385
H      0.29327    1.10385   -0.21369
H      0.55680   -0.67423   -0.35353
H     -1.05534   -0.04690    0.03382
H      2.05294    1.27024    1.91414
H      2.31067   -0.15304    0.90798
H      2.59431   -2.13750    0.89745
H      3.81763   -2.60368    2.12845
H      2.42478   -3.67702    1.75701
H      1.81119   -0.14629    3.92806
H      3.38128   -0.41861    3.14940
H      2.95221   -3.01749    4.48671
H     -1.15042   -2.97516    5.88604
H     -1.65957   -1.25928    5.90006
H     -2.11943   -3.44680    3.78990
H     -1.97811    0.05527    4.39361
H     -3.52269    0.02125    3.54044
H     -2.28993    1.88223    2.77501
H     -2.31796    0.78051    1.43161
H      0.01132    1.04629    3.42299
H     -0.13111    2.04319    1.96442
H      1.63356   -1.14386    5.59248
H      0.98765   -2.73118    6.06571
Br     1.00236   -4.42156    3.77835
Br    -4.05898   -2.49171    4.97832
