54

O      7.39310   22.89437    6.80816
Fe     5.99215   22.12183    4.81532
P      5.80285   20.09312    5.88646
C      5.07209   18.79659    4.81296
C      4.05241   19.47263    3.91790
P      4.87056   20.96496    3.26569
C      3.62034   22.11385    2.63018
C      4.15906   23.51350    2.84149
N      4.81264   23.76320    4.14990
C      5.97607   20.42822    1.89859
C      7.41022   20.39113    2.39585
P      7.73946   21.96187    3.28132
C      9.34894   21.82412    4.08440
C      8.01187   23.16254    1.94975
H      3.69095   18.82767    3.10014
H      3.41867   21.93426    1.56171
H      2.68740   21.92356    3.17476
H      3.17509   19.81215    4.49271
H      5.85998   21.15968    1.08225
H      5.63708   19.45433    1.50931
H      8.13075   20.24143    1.57449
H      7.56010   19.57406    3.11916
H      8.81731   22.78774    1.29694
H      7.10513   23.31341    1.34846
H      8.32679   24.12452    2.38033
H     10.12775   21.58516    3.34266
H      9.57222   22.78914    4.56435
H      9.32242   21.05600    4.86683
H      4.92907   23.70645    2.08080
H      3.36500   24.26397    2.68282
C      3.85632   23.99094    5.25226
H      4.46630   24.29316    6.11172
H      3.21229   24.85191    4.99618
C      5.64511   24.98557    3.94842
H      6.35406   24.73062    3.15133
H      4.97540   25.76373    3.53647
H      4.63534   17.99113    5.42590
H      5.88873   18.35146    4.22196
C      4.79324   20.11024    7.38503
H      3.74117   20.31321    7.14362
H      4.87148   19.12662    7.87562
H      5.16820   20.89035    8.06060
C      7.41958   19.49124    6.40632
H      7.29798   18.55826    6.98009
H      8.04756   19.29434    5.52734
H      7.89396   20.26310    7.02937
C      6.38602   25.53310    5.13753
H      5.71734   25.92654    5.91593
H      7.05408   24.78387    5.58114
H      6.99510   26.38167    4.78940
C      3.03339   22.78359    5.62781
H      2.64582   22.89817    6.65046
H      2.17185   22.61819    4.96857
H      3.66803   21.88052    5.60945
