23

O      0.37458    0.01679   -2.34543
O     -0.34171   -2.14590   -0.36927
O      0.07797    2.13762   -0.25050
P      2.22227   -0.05414    0.43192
N     -2.33280    0.33715   -0.42981
O     -0.50235   -0.00774    1.78455
H     -0.29125   -2.72988    0.40104
H     -0.04963   -2.67424   -1.12796
H      0.21245    2.33993    0.69112
H      3.10684    0.02625   -0.67487
H      2.68224   -1.24998    1.03879
H     -2.75366    0.99149    0.23594
H     -2.51121    0.74573   -1.35258
H     -1.32007   -0.07150    2.31196
Fe    -0.19817   -0.01971   -0.27187
H      2.75883    0.93334    1.28721
H     -2.89860   -0.51659   -0.39257
N      0.63723   -0.17022    2.58810
H      0.63611    0.57358    3.29585
H      0.55295   -1.05986    3.09300
N      1.30087    2.56617   -0.86762
H      1.15845    3.56836   -1.05404
H      1.24400    2.10899   -1.78554
