53

O      5.96325   23.03997    7.00442
Fe     6.31036   22.54257    5.71578
P      5.97290   20.39039    6.24375
C      5.73740   19.10692    4.96864
C      4.67025   19.28278    3.89169
C      4.16328   21.75427    3.85044
C      4.39700   23.15549    3.28808
P      5.02906   24.09913    4.71046
C      5.85838   20.74819    2.14396
C      7.24156   20.83111    2.76108
P      7.61505   22.18055    3.92469
C      9.22199   21.69969    4.62339
C      8.04784   23.58617    2.86137
H      4.76606   18.41867    3.21466
H      4.92477   21.72317    4.75367
H      3.68880   19.14889    4.37249
H      5.69452   21.61424    1.48349
H      5.88369   19.88851    1.45389
H      7.99103   20.94273    1.95816
H      7.50823   19.90346    3.28145
H      8.88025   23.29501    2.20093
H      7.19674   23.89125    2.23813
H      8.36690   24.43523    3.48334
H      9.95276   21.52276    3.81736
H      9.59997   22.50401    5.27394
H      9.10493   20.78376    5.21932
H      5.18812   23.14422    2.52805
H      3.49700   23.59020    2.82319
C      3.62058   24.40154    5.79605
H      3.98436   24.96066    6.67079
H      2.84809   24.98540    5.27016
H      3.20839   23.44625    6.14651
C      5.56754   25.73647    4.18329
H      5.97181   26.26945    5.05850
H      6.33764   25.68286    3.40501
H      4.69600   26.29310    3.80107
H      5.47719   18.20823    5.55700
H      6.72930   18.88825    4.54969
C      4.30647   20.44956    7.14277
H      3.61319   20.91978    6.42383
H      4.02597   19.38449    7.23406
C      7.09173   19.63860    7.44717
H      6.70453   18.65043    7.74538
H      8.10198   19.52082    7.03000
H      7.14578   20.29579    8.32526
C      4.63297   20.54763    3.02763
H      3.80766   20.38374    2.31019
N      4.29137   21.09387    8.38305
H      4.53242   22.08517    8.33972
H      4.76827   20.61275    9.13970
N      2.86709   21.59768    4.36525
H      2.22997   22.37610    4.24734
H      2.41429   20.70507    4.20408
