16

H 0.000000 0.000000 0.000000
H 0.000000 0.000000 1.084848
H 0.000000 0.000000 2.169697
H 0.000000 0.000000 3.254545
H 0.000000 0.000000 4.339394
H 0.000000 0.000000 5.424242
H 0.000000 0.000000 6.509091
H 0.000000 0.000000 7.593939
H 0.000000 0.000000 8.678788
H 0.000000 0.000000 9.763636
H 0.000000 0.000000 10.848485
H 0.000000 0.000000 11.933333
H 0.000000 0.000000 13.018182
H 0.000000 0.000000 14.103030
H 0.000000 0.000000 15.187879
H 0.000000 0.000000 16.272727
