17

O      0.00000    0.00000    1.98687
Fe     0.00000    0.00000   -0.38687
O     -0.02532   -2.04942   -0.42864
O      0.01885    2.04941   -0.43235
O     -2.09136   -0.00340   -0.57717
O      2.09172    0.00000   -0.57311
O      0.00000    0.00000   -2.43687
H      0.26040   -2.63210   -1.15425
H      0.04961   -2.57039    0.39151
H     -0.25655    2.63228   -1.16173
H     -0.05040    2.57471    0.38545
H     -2.58023    0.46315    0.12710
H     -2.52460   -0.87680   -0.61494
H      2.52747    0.87055   -0.63767
H      2.57839   -0.44571    0.14605
H     -0.77522    0.08407   -3.01749
H      0.77001   -0.10212   -3.02145
