29

O     11.82714    7.16897   13.25158
Fe    13.46502    7.53879   11.57372
N     14.93343    7.80238    9.84876
N     12.32654    8.32066   10.04809
O     15.01664    8.63110   12.42236
N     14.03247    5.60859   11.14354
C     14.41678    8.92066    9.02982
H     14.76523    8.81873    7.98412
C     12.91959    8.87223    9.05733
C     16.22803    8.02957   10.47721
H     16.69344    7.05288   10.70528
H     16.95137    8.55044    9.82726
C     16.10110    8.69462   11.82587
C     14.89758    6.53613    9.11428
H     14.10774    6.56928    8.34049
H     15.83357    6.34029    8.55790
C     14.55467    5.38749    9.99647
H     12.36409    9.38242    8.25231
H     14.72894    4.36558    9.61702
H     13.77378    4.78336   11.69415
H     11.30279    8.37427   10.05693
C     14.81108   10.30956    9.51958
H     14.47905   10.48450   10.55254
H     15.89450   10.47010    9.43467
H     14.33326   11.06931    8.88207
C     17.27430    9.35984   12.41218
H     17.15505    9.50162   13.49489
H     18.20607    8.82223   12.17136
H     17.36559   10.35545   11.93542
