24

O     -0.16093    0.62416   -2.50575
N      2.17667    0.36771   -1.25979
H      2.44710    0.37318   -2.24780
H      2.57158   -0.48105   -0.84386
Fe     0.05199    0.36894   -1.16241
H      2.65195    1.15182   -0.80658
P      0.27629    3.03788   -0.55478
H      1.11728    3.57301   -1.56651
H     -0.87528    3.83357   -0.80306
H      0.79082    3.72520    0.58078
P     -0.20068   -2.18094   -1.32815
H     -0.75509   -2.53322   -2.58381
H      0.94590   -3.01171   -1.28481
H     -1.05685   -2.89094   -0.44426
P     -2.21536    0.78792   -0.76198
H     -2.82660    1.62475   -1.74148
H     -2.99739   -0.39025   -0.86438
P      0.07365   -0.14498    1.17866
H      0.10476    0.88993    2.15068
H     -1.01058   -0.91732    1.66741
N     -2.52487    1.27488    0.82048
H     -2.19157    2.20760    1.06282
H     -3.47744    1.14376    1.16993
Br     1.79005   -1.36862    1.71260
