53

O      5.94356   23.06819    7.07753
Fe     6.33005   22.51435    5.64267
P      5.99259   20.36217    6.17064
C      5.75709   19.07870    4.89553
C      4.68994   19.25456    3.81858
C      4.18297   21.72605    3.77733
C      4.41669   23.12727    3.21497
P      5.04875   24.07091    4.63735
C      5.87807   20.71997    2.07085
C      7.26125   20.80289    2.68797
P      7.63474   22.15233    3.85158
C      9.24168   21.67147    4.55028
C      8.06753   23.55795    2.78826
H      4.78575   18.39045    3.14155
H      4.94446   21.69495    4.68056
H      3.70849   19.12067    4.29938
H      5.71421   21.58602    1.41038
H      5.90338   19.86029    1.38078
H      8.01072   20.91451    1.88505
H      7.52792   19.87524    3.20834
H      8.89994   23.26679    2.12782
H      7.21643   23.86303    2.16502
H      8.38659   24.40701    3.41023
H      9.97245   21.49454    3.74425
H      9.61966   22.47579    5.20083
H      9.12462   20.75554    5.14621
H      5.20781   23.11600    2.45494
H      3.51669   23.56198    2.75008
C      3.64027   24.37332    5.72294
H      4.00405   24.93244    6.59768
H      2.86778   24.95718    5.19705
H      3.22808   23.41803    6.07340
C      5.58723   25.70825    4.11018
H      5.99150   26.24123    4.98539
H      6.35733   25.65464    3.33190
H      4.71569   26.26488    3.72796
H      5.49688   18.18001    5.48389
H      6.74899   18.86003    4.47658
C      4.32616   20.42134    7.06966
H      3.63288   20.89156    6.35072
H      4.04566   19.35627    7.16095
C      7.11142   19.61038    7.37406
H      6.72422   18.62221    7.67227
H      8.12167   19.49260    6.95689
H      7.16547   20.26757    8.25215
C      4.65266   20.51941    2.95452
H      3.82735   20.35552    2.23708
N      4.31106   21.06565    8.30994
H      4.55211   22.05695    8.26661
H      4.78796   20.58453    9.06659
N      2.88678   21.56946    4.29214
H      2.24966   22.34788    4.17423
H      2.43398   20.67685    4.13097
