20

O      0.25793   -0.30947   -2.12903
N     -0.22502   -2.14263    0.21563
O      0.42194    2.04291   -0.36005
N      2.29334   -0.37511    0.03037
N     -2.07632    0.24138   -0.39780
O     -0.02537    0.37045    1.79796
H      0.49039   -2.52519    0.84173
H     -0.22843   -2.73401   -0.62085
H      0.42189    2.59779    0.43432
H      0.57429    2.62418   -1.11957
H      2.79194    0.52507    0.02532
H      2.70941   -0.92910   -0.73049
H     -2.29844    1.24320   -0.47458
H     -2.47332   -0.19810   -1.23932
H      0.65621    0.06580    2.41764
H     -0.87059    0.28213    2.26615
Fe     0.11619   -0.08168   -0.27971
H     -1.12307   -2.29479    0.68522
Cl    -3.01078   -0.35147    0.93746
Cl     2.75479   -1.16524    1.50374
