45

O     -0.33298   -3.03174    0.70735
Fe    -0.22677   -2.28432    1.79409
N      1.88238   -2.41346    2.26778
N      0.28480   -0.39832    0.98681
N     -2.26372   -1.95634    2.40371
O     -0.16140   -2.13979    3.97320
C     -0.04402   -0.32033   -0.44425
C      1.74201   -0.23318    1.18359
C      2.23034   -0.98579    2.39918
C      2.68677   -3.06902    1.22949
C     -0.44983    0.62556    1.76628
C     -1.95723    0.47617    1.80796
C     -2.49754   -0.54709    2.78013
C     -3.14741   -2.37279    1.30418
C      1.07218   -2.48512    4.58260
C      1.87775   -3.17732    3.51246
C     -1.37250   -2.51860    4.62906
C     -2.36972   -2.86427    3.54070
H     -2.96189   -3.42693    1.06555
H     -4.20010   -2.24120    1.60082
H     -2.93760   -1.77053    0.41337
H      0.23166    0.67023   -0.84417
H      0.49519   -1.10785   -0.98401
H     -1.11695   -0.48052   -0.59666
H      1.99133    0.83662    1.28366
H      2.24906   -0.58666    0.27750
H      2.53270   -2.57112    0.26697
H      3.75602   -3.03730    1.49797
H      2.36317   -4.11064    1.12653
H      1.74958   -0.57991    3.29758
H      3.31967   -0.85223    2.51892
H      2.89060   -3.45111    3.85623
H     -1.21203   -3.40878    5.25556
H     -1.72118   -1.69290    5.26958
H     -2.18104   -3.88042    3.15942
H     -2.03972   -0.37835    3.76313
H     -3.58430   -0.41237    2.90996
H     -2.35154    1.44861    2.14453
H     -2.37957    0.34689    0.80113
H     -0.05029    0.61267    2.79251
H     -0.19272    1.60957    1.33394
H      1.57195   -1.57748    4.96200
H      0.92604   -3.16480    5.43523
Br     0.94075   -4.85518    3.14787
Br    -4.12059   -2.92533    4.34784
