24

O     -0.22621    0.70240   -2.91757
N      2.24195    0.28947   -0.84797
H      2.51238    0.29494   -1.83598
H      2.63686   -0.55929   -0.43204
Fe     0.11727    0.29070   -0.75059
H      2.71723    1.07358   -0.39476
P      0.27629    3.03788   -0.55478
H      1.11728    3.57301   -1.56651
H     -0.87528    3.83357   -0.80306
H      0.79082    3.72520    0.58078
P     -0.20068   -2.18094   -1.32815
H     -0.75509   -2.53322   -2.58381
H      0.94590   -3.01171   -1.28481
H     -1.05685   -2.89094   -0.44426
P     -2.15008    0.70968   -0.35016
H     -2.76132    1.54651   -1.32966
H     -2.93211   -0.46849   -0.45256
P      0.13893   -0.22322    1.59048
H      0.17004    0.81169    2.56250
H     -0.94530   -0.99556    2.07923
N     -2.45959    1.19664    1.23230
H     -2.12629    2.12936    1.47464
H     -3.41216    1.06552    1.58175
Br     1.85533   -1.44686    2.12442
