23

O      0.34335   -0.55336   -2.25270
O     -0.63278   -2.15631    0.28694
O      0.18933    2.08207   -0.28257
P      2.30972   -0.55754    0.05634
N     -2.32294    0.32747   -0.40733
O     -0.47882    0.27163    1.69224
H     -1.07597   -2.56620    1.04398
H     -0.51014   -2.84561   -0.38290
H      3.16724    0.33118   -0.64201
H      2.77127   -1.79303   -0.46383
H     -2.50773    1.06189   -1.09590
H     -2.83639   -0.49523   -0.73712
H     -0.05123   -0.17854    2.43422
H     -0.23636    1.24145    1.77340
Fe    -0.22458   -0.11924   -0.15926
H      2.94239   -0.56589    1.32942
H     -2.77362    0.61547    0.46598
N      0.24389    2.71179    0.98275
H      1.19077    3.09130    1.11489
H     -0.41483    3.50186    0.97497
N      0.49817    2.81617   -1.41346
H     -0.13512    3.62353   -1.46170
H      1.46051    3.16516   -1.32741
