22

O      0.62916   -0.10475   -2.59763
O     -0.13176   -2.17943   -0.07121
O      0.10773    2.16127   -0.26153
P      2.18942   -0.26670    0.62873
O     -2.22237   -0.02409   -0.15413
O     -0.64106    0.01076    1.68341
H     -0.22828   -2.85443   -0.76923
H      0.53141    2.57598    0.50515
H      0.36283    2.70154   -1.02613
H      3.09953    0.77937    0.32905
H      2.83180   -1.36122   -0.00112
H     -2.79818    0.36132   -0.82926
H     -2.50341    0.30658    0.80092
H     -0.79213   -1.01458    1.66698
Fe    -0.18214    0.07234   -0.11676
H      2.49787   -0.50986    1.99263
N     -0.93253   -2.47185    1.03290
H     -1.88513   -2.68965    0.71559
H     -0.54582   -3.29455    1.51254
N     -1.94509    0.54948    1.82075
H     -2.37163    0.13016    2.65796
H     -1.79979    1.53586    2.06131
