22

O      0.66346   -0.99538   -2.65648
N      2.79878   -0.75498   -0.41972
H      3.21989   -0.62371   -1.34293
H      3.07628   -1.69324   -0.11662
Fe     0.64526   -0.40023   -0.35864
H      3.26331   -0.09277    0.20717
P      0.74126    1.86720   -0.75221
H      0.11524    2.29265   -1.95379
H      0.11501    2.71993    0.19491
P     -0.57455   -2.34963   -0.11494
H     -1.47028   -2.62721   -1.17691
H      0.29255   -3.47261   -0.17088
H     -1.35035   -2.65799    1.03316
P     -1.98622    0.47071   -0.94972
H     -2.37131    0.04025   -2.24560
H     -2.94231   -0.23275   -0.16537
H     -2.60801    1.75281   -0.92983
P      0.54753   -0.01097    1.89678
H      0.88985   -1.09549    2.75348
H     -0.72834    0.31562    2.43367
Br     1.81827    1.56997    2.66371
Br     2.72714    2.72797   -0.90556
