19

O      0.83696   -0.22621   -2.51377
O     -0.20422   -2.11245    0.47210
O      0.35869    2.07550    0.37473
P      2.56610   -0.35966    0.65227
P     -2.22553    0.28254   -0.92454
O     -0.19929    0.04417    1.85116
H     -0.77860   -2.52362    1.13547
H     -0.30693   -2.63529   -0.33854
H      0.50452    2.52472    1.22126
H      0.99673    2.46328   -0.24667
H      3.11657   -1.42670   -0.10716
H     -2.38730    1.24743   -1.95659
H      0.37968   -0.22737    2.57891
H     -1.02912    0.31306    2.27257
Fe     0.09026   -0.02574    0.21730
H      3.16359   -0.62985    1.91759
H     -3.31886    0.66526   -0.09332
Br    -2.95938   -1.53617   -1.85346
Br     3.67741    1.36768   -0.03187
