23

O     11.65467    6.95728   13.38275
Fe    13.42512    7.48144   11.47276
N     14.96784    7.80818    9.78399
N     12.34567    8.45676   10.03329
O     14.85907    8.89637   12.25080
N     14.14282    5.62155   11.10041
C     14.45312    8.92145    8.98176
H     14.90088    9.87399    9.32321
H     14.75976    8.84768    7.92296
C     12.97848    9.05907    9.09692
C     16.21113    8.08839   10.46993
H     16.63712    7.13436   10.83802
C     15.95968    8.90595   11.71790
C     15.01456    6.54187    9.05577
H     14.22690    6.52545    8.28311
H     15.97394    6.40568    8.52583
C     14.73375    5.39158    9.97852
H     12.46437    9.71534    8.37318
H     16.80501    9.47743   12.15888
H     13.92789    4.80654   11.68355
H     11.33385    8.61888   10.07460
Br    17.58428    8.88342    9.37592
Br    15.20810    3.72455    9.39171
