29

O     -2.53078    2.14555    2.11505
Fe    -2.35128    2.19545   -0.12975
N     -3.60478    3.86076   -0.44094
O     -1.93534    1.69862   -2.01175
N     -0.26184    2.48818   -0.05228
O     -3.61732    0.54694   -0.18198
C     -4.85300    3.63859    0.30699
H     -5.52191    4.50761    0.18544
H     -5.35808    2.74248   -0.07886
H     -4.62066    3.50002    1.36973
C     -2.85781    5.00350    0.10598
H     -1.92807    5.15093   -0.46279
H     -3.46100    5.92498    0.02921
H     -2.62383    4.81441    1.16205
C     -3.89105    4.05448   -1.86743
H     -4.43287    3.18102   -2.25896
H     -4.53204    4.94229   -2.00848
H     -2.95665    4.21482   -2.42328
H     -1.31125    1.00478   -2.27108
H     -2.51814    1.81556   -2.77573
H      0.14403    2.28099    0.86777
H     -3.85494    0.34171    0.73635
C      0.57098    2.97899   -0.88803
H      1.63115    3.14865   -0.63199
H      0.23121    3.24411   -1.90045
C     -3.79549   -0.61396   -1.00618
H     -3.05630   -1.39225   -0.75164
H     -4.81697   -1.00497   -0.87148
H     -3.66677   -0.30052   -2.04915
