22

O      0.65928   -0.85862   -2.12847
N      2.79878   -0.75498   -0.41972
H      3.21989   -0.62371   -1.34293
H      3.07628   -1.69324   -0.11662
Fe     0.64944   -0.53699   -0.88665
H      3.26331   -0.09277    0.20717
P      0.74544    1.73044   -1.28022
H      0.11942    2.15589   -2.48180
H      0.11919    2.58317   -0.33310
P     -0.57037   -2.48639   -0.64295
H     -1.46610   -2.76397   -1.70492
H      0.29673   -3.60937   -0.69889
H     -1.34617   -2.79475    0.50515
P     -1.98622    0.47071   -0.94972
H     -2.37131    0.04025   -2.24560
H     -2.94231   -0.23275   -0.16537
H     -2.60801    1.75281   -0.92983
P      0.55171   -0.14773    1.36877
H      0.89403   -1.23225    2.22547
H     -0.72416    0.17886    1.90566
Br     1.82245    1.43321    2.13570
Br     2.73132    2.59121   -1.43357
