17

O      0.00000    0.00000    2.19899
Fe     0.00000    0.00000   -0.59899
O     -0.02532   -2.04942   -0.64076
O      0.01885    2.04941   -0.64447
O     -2.09136   -0.00340   -0.78929
O      2.09172    0.00000   -0.78523
O      0.00000    0.00000   -2.64899
H      0.26040   -2.63210   -1.36638
H      0.04961   -2.57039    0.17939
H     -0.25655    2.63228   -1.37385
H     -0.05040    2.57471    0.17333
H     -2.58023    0.46315   -0.08502
H     -2.52460   -0.87680   -0.82706
H      2.52747    0.87055   -0.84979
H      2.57839   -0.44571   -0.06607
H     -0.77522    0.08407   -3.22961
H      0.77001   -0.10212   -3.23357
