54

O      6.97226   22.66230    6.20952
Fe     6.41299   22.35390    5.41396
P      6.22369   20.32519    6.48510
C      5.49293   19.02866    5.41160
C      4.47325   19.70470    4.51654
P      5.29140   21.19703    3.86433
C      4.04118   22.34592    3.22882
C      4.57990   23.74557    3.44013
N      5.23348   23.99527    4.74854
C      6.39691   20.66029    2.49723
C      7.83106   20.62320    2.99449
P      8.16030   22.19394    3.87996
C      9.76978   22.05619    4.68304
C      8.43271   23.39461    2.54839
H      4.11179   19.05974    3.69878
H      3.83951   22.16633    2.16035
H      3.10824   22.15563    3.77340
H      3.59593   20.04422    5.09135
H      6.28082   21.39175    1.68089
H      6.05792   19.68640    2.10795
H      8.55159   20.47350    2.17313
H      7.98094   19.80613    3.71780
H      9.23815   23.01981    1.89558
H      7.52597   23.54548    1.94710
H      8.74763   24.35659    2.97897
H     10.54859   21.81723    3.94130
H      9.99306   23.02121    5.16299
H      9.74326   21.28807    5.46547
H      5.34991   23.93852    2.67944
H      3.78584   24.49604    3.28146
C      4.27716   24.22301    5.85090
H      4.88714   24.52523    6.71036
H      3.63313   25.08398    5.59482
C      6.06595   25.21764    4.54706
H      6.77490   24.96269    3.74997
H      5.39624   25.99580    4.13511
H      5.05618   18.22320    6.02454
H      6.30957   18.58353    4.82060
C      5.21408   20.34231    7.98367
H      4.16201   20.54528    7.74226
H      5.29232   19.35869    8.47426
H      5.58904   21.12242    8.65924
C      7.84042   19.72331    7.00496
H      7.71882   18.79033    7.57873
H      8.46840   19.52641    6.12598
H      8.31480   20.49517    7.62801
C      6.80686   25.76517    5.73617
H      6.13818   26.15861    6.51457
H      7.47492   25.01594    6.17978
H      7.41594   26.61374    5.38804
C      3.45423   23.01566    6.22645
H      3.06666   23.13024    7.24910
H      2.59269   22.85026    5.56721
H      4.08887   22.11259    6.20809
