33

O      6.81253   22.61228    6.79232
Fe     6.30820   21.81597    5.17877
N      6.06481   19.74596    5.72068
C      5.75688   18.86337    4.58739
C      4.59433   19.29862    3.71063
C      4.01332   21.84037    3.63996
C      4.50593   23.21599    3.20873
N      5.80915   23.48393    3.82990
C      5.93849   20.77952    2.07659
C      7.34552   20.74695    2.61583
N      7.64723   21.22940    3.79648
H      4.48112   18.48709    2.97339
H      2.93526   21.78609    3.40939
H      3.64881   19.26372    4.28025
H      5.87103   21.71021    1.48750
H      5.88353   19.98436    1.31655
H      4.54380   23.29737    2.11268
H      3.77695   23.97066    3.54396
H      5.54204   17.84370    4.95235
H      6.67048   18.78097    3.98181
C      4.66079   20.61732    2.91985
H      3.92723   20.46209    2.11224
H      6.93869   19.44380    6.16099
H      5.36357   19.64689    6.45973
H      8.64330   21.20119    4.02433
H      6.55830   23.55789    3.14197
H      5.81005   24.36832    4.34133
N      8.26068   20.25593    1.77857
H      9.25198   20.26629    2.00051
H      8.00572   19.90726    0.86097
N      4.19757   21.79123    5.09462
H      3.76382   22.59835    5.55157
H      3.74246   20.96966    5.49169
