23

O     11.58735    6.93735   13.45537
Fe    13.49244    7.50137   11.40014
N     15.03516    7.82811    9.71137
N     12.41299    8.47669    9.96067
O     14.92639    8.91630   12.17818
N     14.21014    5.64148   11.02779
C     14.52044    8.94138    8.90914
H     14.96820    9.89392    9.25059
H     14.82708    8.86761    7.85034
C     13.04580    9.07900    9.02430
C     16.27845    8.10832   10.39731
H     16.70444    7.15429   10.76540
C     16.02700    8.92588   11.64528
C     15.08188    6.56180    8.98315
H     14.29422    6.54538    8.21049
H     16.04126    6.42561    8.45321
C     14.80107    5.41151    9.90590
H     12.53169    9.73527    8.30056
H     16.87233    9.49736   12.08626
H     13.99521    4.82647   11.61093
H     11.40117    8.63881   10.00198
Br    17.65160    8.90335    9.30330
Br    15.27542    3.74448    9.31909
