24

O     -0.16715    0.63161   -2.54497
N      2.18289    0.36026   -1.22057
H      2.45332    0.36573   -2.20858
H      2.57780   -0.48850   -0.80464
Fe     0.05821    0.36149   -1.12319
H      2.65817    1.14437   -0.76736
P      0.27629    3.03788   -0.55478
H      1.11728    3.57301   -1.56651
H     -0.87528    3.83357   -0.80306
H      0.79082    3.72520    0.58078
P     -0.20068   -2.18094   -1.32815
H     -0.75509   -2.53322   -2.58381
H      0.94590   -3.01171   -1.28481
H     -1.05685   -2.89094   -0.44426
P     -2.20914    0.78047   -0.72276
H     -2.82038    1.61730   -1.70226
H     -2.99117   -0.39770   -0.82516
P      0.07987   -0.15243    1.21788
H      0.11098    0.88248    2.18990
H     -1.00436   -0.92477    1.70663
N     -2.51865    1.26743    0.85970
H     -2.18535    2.20015    1.10204
H     -3.47122    1.13631    1.20915
Br     1.79627   -1.37607    1.75182
