37

O      1.06857    0.45789    3.62427
N      0.01891   -2.06655    0.43081
C      0.92374   -2.01484   -0.73247
H      0.36867   -1.57089   -1.57361
H      1.21730   -3.03532   -1.03718
C     -1.34193   -2.52447    0.08895
H     -1.81645   -2.79021    1.04497
H     -1.30815   -3.43146   -0.54035
C      2.13401   -1.17305   -0.40190
H      2.72716   -1.65161    0.39184
H      2.79511   -1.08331   -1.27987
C     -2.13342   -1.44070   -0.59209
H     -3.18310   -1.75956   -0.70712
H     -1.74015   -1.18162   -1.59156
C      1.56571    1.20096   -0.91999
H      2.55010    1.52145   -1.30420
H      1.00614    0.79814   -1.77796
C     -2.62546    0.92939   -0.21449
H     -3.10767    1.41019    0.64860
H     -3.38290    0.73032   -0.98766
C     -1.49587    1.77451   -0.75006
H     -1.04747    1.30706   -1.63868
H     -1.86149    2.77274   -1.05533
C      0.84398    2.37132   -0.29070
H      1.43350    2.76751    0.55073
H      0.69405    3.19316   -1.01191
N     -0.44135    1.90882    0.26857
Fe    -0.17488   -0.03911    1.12162
N      1.70275    0.14364    0.08218
O     -2.06786   -0.30064    0.26765
H      2.33139    0.46299    0.82203
N      0.48479   -2.79880    1.53666
H      1.31435   -2.35016    1.92167
H      0.72916   -3.75537    1.25835
N     -0.94745    2.60742    1.37338
H     -1.16737    3.57903    1.12745
H     -0.25059    2.59781    2.11885
