52

O      7.24493   22.95805    5.84320
Fe     6.50436   22.30025    5.12719
N      6.15668   20.57036    6.24785
C      5.90083   19.39627    5.38110
C      4.83008   19.67287    4.34110
P      5.24020   21.29150    3.64357
C      3.84648   22.37344    3.25300
C      4.42316   23.76685    3.41493
N      5.16789   23.93153    4.68713
C      6.27676   21.00859    2.12033
C      7.69142   20.83247    2.66122
N      8.04750   21.81477    3.69540
C      9.28941   21.41318    4.36631
C      8.22302   23.14698    3.10743
H      4.80822   18.91254    3.54387
H      3.47501   22.20050    2.22952
H      3.01373   22.17061    3.94366
H      3.81926   19.71172    4.77523
H      6.20277   21.95912    1.56645
H      8.42101   20.87681    1.83234
H      7.77575   19.83058    3.10801
H      9.01995   23.13382    2.34278
H      7.28893   23.47364    2.63365
H      8.49815   23.85215    3.90241
H     10.13251   21.42781    3.65425
H      9.48812   22.10625    5.19350
H      9.18337   20.39292    4.75448
H      5.13166   23.97520    2.59923
H      3.63245   24.53570    3.35117
C      4.24287   23.93260    5.82711
H      4.81663   24.03743    6.75622
H      3.53724   24.77807    5.74914
H      3.66836   23.00065    5.85512
C      5.88142   25.21873    4.66306
H      6.47290   25.32071    5.57973
H      6.55492   25.25890    3.80026
H      5.15643   26.04670    4.58625
H      5.61285   18.55219    6.03148
H      6.85294   19.13232    4.90154
C      4.93946   20.82775    7.11735
H      4.13550   21.11324    6.42528
H      5.21026   21.71497    7.70916
C      7.29641   20.27558    7.12901
H      7.07289   19.38192    7.73321
H      8.19349   20.08755    6.53114
H      7.48330   21.13376    7.78395
N      5.76704   19.94922    1.32943
H      5.68229   20.15881    0.33945
H      6.24173   19.06003    1.45592
N      4.58761   19.71207    7.89168
H      3.66311   19.32911    7.73382
H      4.79749   19.76637    8.88200
