52

O      7.17761   22.89825    5.77811
Fe     6.57168   22.36005    5.19228
N      6.22400   20.63016    6.31294
C      5.96815   19.45607    5.44619
C      4.89740   19.73267    4.40619
P      5.30752   21.35130    3.70866
C      3.91380   22.43324    3.31809
C      4.49048   23.82665    3.48002
N      5.23521   23.99133    4.75222
C      6.34408   21.06839    2.18542
C      7.75874   20.89227    2.72631
N      8.11482   21.87457    3.76049
C      9.35673   21.47298    4.43140
C      8.29034   23.20678    3.17252
H      4.87554   18.97234    3.60896
H      3.54233   22.26030    2.29461
H      3.08105   22.23041    4.00875
H      3.88658   19.77152    4.84032
H      6.27009   22.01892    1.63154
H      8.48833   20.93661    1.89743
H      7.84307   19.89038    3.17310
H      9.08727   23.19362    2.40787
H      7.35625   23.53344    2.69874
H      8.56547   23.91195    3.96750
H     10.19983   21.48761    3.71934
H      9.55544   22.16605    5.25859
H      9.25069   20.45272    4.81957
H      5.19898   24.03500    2.66432
H      3.69977   24.59550    3.41626
C      4.31019   23.99240    5.89220
H      4.88395   24.09723    6.82131
H      3.60456   24.83787    5.81423
H      3.73568   23.06045    5.92021
C      5.94874   25.27853    4.72815
H      6.54022   25.38051    5.64482
H      6.62224   25.31870    3.86535
H      5.22375   26.10650    4.65134
H      5.68017   18.61199    6.09657
H      6.92026   19.19212    4.96663
C      5.00678   20.88755    7.18244
H      4.20282   21.17304    6.49037
H      5.27758   21.77477    7.77425
C      7.36373   20.33538    7.19410
H      7.14021   19.44172    7.79830
H      8.26081   20.14735    6.59623
H      7.55062   21.19356    7.84904
N      5.83436   20.00902    1.39452
H      5.74961   20.21861    0.40454
H      6.30905   19.11983    1.52101
N      4.65493   19.77187    7.95677
H      3.73043   19.38891    7.79891
H      4.86481   19.82617    8.94709
