23

O      0.38743   -0.58706   -2.41520
O     -0.67686   -2.12261    0.44944
O      0.18933    2.08207   -0.28257
P      2.30972   -0.55754    0.05634
N     -2.36702    0.36117   -0.24483
O     -0.47882    0.27163    1.69224
H     -1.12005   -2.53250    1.20648
H     -0.55422   -2.81191   -0.22040
H      3.16724    0.33118   -0.64201
H      2.77127   -1.79303   -0.46383
H     -2.55181    1.09559   -0.93340
H     -2.88047   -0.46153   -0.57462
H     -0.05123   -0.17854    2.43422
H     -0.23636    1.24145    1.77340
Fe    -0.26866   -0.08554    0.00324
H      2.94239   -0.56589    1.32942
H     -2.81770    0.64917    0.62848
N      0.24389    2.71179    0.98275
H      1.19077    3.09130    1.11489
H     -0.41483    3.50186    0.97497
N      0.49817    2.81617   -1.41346
H     -0.13512    3.62353   -1.46170
H      1.46051    3.16516   -1.32741
