37

O      0.92696    0.40129    3.33927
N      0.16052   -2.00995    0.71581
C      1.06535   -1.95824   -0.44747
H      0.51028   -1.51429   -1.28861
H      1.35891   -2.97872   -0.75218
C     -1.20032   -2.46787    0.37395
H     -1.67484   -2.73361    1.32997
H     -1.16654   -3.37486   -0.25535
C      2.27562   -1.11645   -0.11690
H      2.86877   -1.59501    0.67684
H      2.93672   -1.02671   -0.99487
C     -1.99181   -1.38410   -0.30709
H     -3.04149   -1.70296   -0.42212
H     -1.59854   -1.12502   -1.30656
C      1.70732    1.25756   -0.63499
H      2.69171    1.57805   -1.01920
H      1.14775    0.85474   -1.49296
C     -2.48385    0.98599    0.07051
H     -2.96606    1.46679    0.93360
H     -3.24129    0.78692   -0.70266
C     -1.35426    1.83111   -0.46506
H     -0.90586    1.36366   -1.35368
H     -1.71988    2.82934   -0.77033
C      0.98559    2.42792   -0.00570
H      1.57511    2.82411    0.83573
H      0.83566    3.24976   -0.72691
N     -0.29974    1.96542    0.55357
Fe    -0.03327    0.01749    1.40662
N      1.84436    0.20024    0.36718
O     -1.92625   -0.24404    0.55265
H      2.47300    0.51959    1.10703
N      0.62640   -2.74220    1.82166
H      1.45596   -2.29356    2.20667
H      0.87077   -3.69877    1.54335
N     -0.80584    2.66402    1.65838
H     -1.02576    3.63563    1.41245
H     -0.10898    2.65441    2.40385
