52

O      7.36734   23.06678    5.96155
Fe     6.38195   22.19152    5.00884
N      6.03427   20.46163    6.12950
C      5.77842   19.28754    5.26275
C      4.70767   19.56414    4.22275
P      5.11779   21.18277    3.52522
C      3.72407   22.26471    3.13465
C      4.30075   23.65812    3.29658
N      5.04548   23.82280    4.56878
C      6.15435   20.89986    2.00198
C      7.56901   20.72374    2.54287
N      7.92509   21.70604    3.57705
C      9.16700   21.30445    4.24796
C      8.10061   23.03825    2.98908
H      4.68581   18.80381    3.42552
H      3.35260   22.09177    2.11117
H      2.89132   22.06188    3.82531
H      3.69685   19.60299    4.65688
H      6.08036   21.85039    1.44810
H      8.29860   20.76808    1.71399
H      7.65334   19.72185    2.98966
H      8.89754   23.02509    2.22443
H      7.16652   23.36491    2.51530
H      8.37574   23.74342    3.78406
H     10.01010   21.31908    3.53590
H      9.36571   21.99752    5.07515
H      9.06096   20.28419    4.63613
H      5.00925   23.86647    2.48088
H      3.51004   24.42697    3.23282
C      4.12046   23.82387    5.70876
H      4.69422   23.92870    6.63787
H      3.41483   24.66934    5.63079
H      3.54595   22.89192    5.73677
C      5.75901   25.11000    4.54471
H      6.35049   25.21198    5.46138
H      6.43251   25.15017    3.68191
H      5.03402   25.93797    4.46790
H      5.49044   18.44346    5.91313
H      6.73053   19.02359    4.78319
C      4.81705   20.71902    6.99900
H      4.01309   21.00451    6.30693
H      5.08785   21.60624    7.59081
C      7.17400   20.16685    7.01066
H      6.95048   19.27319    7.61486
H      8.07108   19.97882    6.41279
H      7.36089   21.02503    7.66560
N      5.64463   19.84049    1.21108
H      5.55988   20.05008    0.22110
H      6.11932   18.95130    1.33757
N      4.46520   19.60334    7.77333
H      3.54070   19.22038    7.61547
H      4.67508   19.65764    8.76365
