22

O      0.64875   -0.30508   -2.80623
O     -0.66709   -2.13712   -0.38183
O     -0.43834    1.92051    0.52320
P      1.96762   -0.51462    0.59415
O     -2.35339    0.11938   -0.75358
O     -0.76755   -0.13725    1.74867
H     -0.72924   -2.43266    0.54358
H     -0.91622    1.98363    1.43648
H     -0.03742    2.75421    0.24349
H      2.89053    0.36678   -0.02150
H      2.40422   -1.77908    0.12951
H     -2.71514    0.87660   -1.24004
H     -2.86977   -0.64808   -1.04523
H      0.06134   -0.08743    2.25404
Fe    -0.39592   -0.01425   -0.05245
H      2.46248   -0.53217    1.92650
N      0.19404   -3.08776   -1.01502
H     -0.43151   -3.85283   -1.30283
H      0.44633   -2.60182   -1.88377
N     -1.42320    1.10119    2.01296
H     -2.39675    0.90660    1.75224
H     -1.43649    1.24044    3.03273
