54

O      7.23805   22.80887    6.58761
Fe     6.14720   22.20733    5.03587
P      5.95790   20.17862    6.10701
C      5.22714   18.88209    5.03351
C      4.20746   19.55813    4.13845
P      5.02561   21.05046    3.48624
C      3.77539   22.19935    2.85073
C      4.31411   23.59900    3.06204
N      4.96769   23.84870    4.37045
C      6.13112   20.51372    2.11914
C      7.56527   20.47663    2.61640
P      7.89451   22.04737    3.50187
C      9.50399   21.90962    4.30495
C      8.16692   23.24804    2.17030
H      3.84600   18.91317    3.32069
H      3.57372   22.01976    1.78226
H      2.84245   22.00906    3.39531
H      3.33014   19.89765    4.71326
H      6.01503   21.24518    1.30280
H      5.79213   19.53983    1.72986
H      8.28580   20.32693    1.79504
H      7.71515   19.65956    3.33971
H      8.97236   22.87324    1.51749
H      7.26018   23.39891    1.56901
H      8.48184   24.21002    2.60088
H     10.28280   21.67066    3.56321
H      9.72727   22.87464    4.78490
H      9.47747   21.14150    5.08738
H      5.08412   23.79195    2.30135
H      3.52005   24.34947    2.90337
C      4.01137   24.07644    5.47281
H      4.62135   24.37866    6.33227
H      3.36734   24.93741    5.21673
C      5.80016   25.07107    4.16897
H      6.50911   24.81612    3.37188
H      5.13045   25.84923    3.75702
H      4.79039   18.07663    5.64645
H      6.04378   18.43696    4.44251
C      4.94829   20.19574    7.60558
H      3.89622   20.39871    7.36417
H      5.02653   19.21212    8.09617
H      5.32325   20.97585    8.28115
C      7.57463   19.57674    6.62687
H      7.45303   18.64376    7.20064
H      8.20261   19.37984    5.74789
H      8.04901   20.34860    7.24992
C      6.54107   25.61860    5.35808
H      5.87239   26.01204    6.13648
H      7.20913   24.86937    5.80169
H      7.15015   26.46717    5.00995
C      3.18844   22.86909    5.84836
H      2.80087   22.98367    6.87101
H      2.32690   22.70369    5.18912
H      3.82308   21.96602    5.83000
