54

O      7.44293   22.92186    6.87905
Fe     5.94232   22.09434    4.74443
P      5.75302   20.06563    5.81557
C      5.02226   18.76910    4.74207
C      4.00258   19.44514    3.84701
P      4.82073   20.93747    3.19480
C      3.57051   22.08636    2.55929
C      4.10923   23.48601    2.77060
N      4.76281   23.73571    4.07901
C      5.92624   20.40073    1.82770
C      7.36039   20.36364    2.32496
P      7.68963   21.93438    3.21043
C      9.29911   21.79663    4.01351
C      7.96204   23.13505    1.87886
H      3.64112   18.80018    3.02925
H      3.36884   21.90677    1.49082
H      2.63757   21.89607    3.10387
H      3.12526   19.78466    4.42182
H      5.81015   21.13219    1.01136
H      5.58725   19.42684    1.43842
H      8.08092   20.21394    1.50360
H      7.51027   19.54657    3.04827
H      8.76748   22.76025    1.22605
H      7.05530   23.28592    1.27757
H      8.27696   24.09703    2.30944
H     10.07792   21.55767    3.27177
H      9.52239   22.76165    4.49346
H      9.27259   21.02851    4.79594
H      4.87924   23.67896    2.00991
H      3.31517   24.23648    2.61193
C      3.80649   23.96345    5.18137
H      4.41647   24.26567    6.04083
H      3.16246   24.82442    4.92529
C      5.59528   24.95808    3.87753
H      6.30423   24.70313    3.08044
H      4.92557   25.73624    3.46558
H      4.58551   17.96364    5.35501
H      5.83890   18.32397    4.15107
C      4.74341   20.08275    7.31414
H      3.69134   20.28572    7.07273
H      4.82165   19.09913    7.80473
H      5.11837   20.86286    7.98971
C      7.36975   19.46375    6.33543
H      7.24815   18.53077    6.90920
H      7.99773   19.26685    5.45645
H      7.84413   20.23561    6.95848
C      6.33619   25.50561    5.06664
H      5.66751   25.89905    5.84504
H      7.00425   24.75638    5.51025
H      6.94527   26.35418    4.71851
C      2.98356   22.75610    5.55692
H      2.59599   22.87068    6.57957
H      2.12202   22.59070    4.89768
H      3.61820   21.85303    5.53856
