53

O      5.85002   23.20224    7.42482
Fe     6.42359   22.38030    5.29538
P      6.08613   20.22812    5.82335
C      5.85063   18.94465    4.54824
C      4.78348   19.12051    3.47129
C      4.27651   21.59200    3.43004
C      4.51023   22.99322    2.86768
P      5.14229   23.93686    4.29006
C      5.97161   20.58592    1.72356
C      7.35479   20.66884    2.34068
P      7.72828   22.01828    3.50429
C      9.33522   21.53742    4.20299
C      8.16107   23.42390    2.44097
H      4.87929   18.25640    2.79426
H      5.03800   21.56090    4.33327
H      3.80203   18.98662    3.95209
H      5.80775   21.45197    1.06309
H      5.99692   19.72624    1.03349
H      8.10426   20.78046    1.53776
H      7.62146   19.74119    2.86105
H      8.99348   23.13274    1.78053
H      7.30997   23.72898    1.81773
H      8.48013   24.27296    3.06294
H     10.06599   21.36049    3.39696
H      9.71320   22.34174    4.85354
H      9.21816   20.62149    4.79892
H      5.30135   22.98195    2.10765
H      3.61023   23.42793    2.40279
C      3.73381   24.23927    5.37565
H      4.09759   24.79839    6.25039
H      2.96132   24.82313    4.84976
H      3.32162   23.28398    5.72611
C      5.68077   25.57420    3.76289
H      6.08504   26.10718    4.63810
H      6.45087   25.52059    2.98461
H      4.80923   26.13083    3.38067
H      5.59042   18.04596    5.13660
H      6.84253   18.72598    4.12929
C      4.41970   20.28729    6.72237
H      3.72642   20.75751    6.00343
H      4.13920   19.22222    6.81366
C      7.20496   19.47633    7.02677
H      6.81776   18.48816    7.32498
H      8.21521   19.35855    6.60960
H      7.25901   20.13352    7.90486
C      4.74620   20.38536    2.60723
H      3.92089   20.22147    1.88979
N      4.40460   20.93160    7.96265
H      4.64565   21.92290    7.91932
H      4.88150   20.45048    8.71930
N      2.98032   21.43541    3.94485
H      2.34320   22.21383    3.82694
H      2.52752   20.54280    3.78368
