20

O      0.22575   -0.25776   -1.70919
N     -0.19284   -2.19434   -0.20421
O      0.42194    2.04291   -0.36005
N      2.29334   -0.37511    0.03037
N     -2.07632    0.24138   -0.39780
O     -0.02537    0.37045    1.79796
H      0.52257   -2.57690    0.42189
H     -0.19625   -2.78572   -1.04069
H      0.42189    2.59779    0.43432
H      0.57429    2.62418   -1.11957
H      2.79194    0.52507    0.02532
H      2.70941   -0.92910   -0.73049
H     -2.29844    1.24320   -0.47458
H     -2.47332   -0.19810   -1.23932
H      0.65621    0.06580    2.41764
H     -0.87059    0.28213    2.26615
Fe     0.14837   -0.13339   -0.69955
H     -1.09089   -2.34650    0.26538
Cl    -3.01078   -0.35147    0.93746
Cl     2.75479   -1.16524    1.50374
