17

O      0.00000    0.00000    1.39091
Fe     0.00000    0.00000    0.20909
O     -0.02532   -2.04942    0.16732
O      0.01885    2.04941    0.16361
O     -2.09136   -0.00340    0.01879
O      2.09172    0.00000    0.02285
O      0.00000    0.00000   -1.84091
H      0.26040   -2.63210   -0.55829
H      0.04961   -2.57039    0.98747
H     -0.25655    2.63228   -0.56577
H     -0.05040    2.57471    0.98141
H     -2.58023    0.46315    0.72306
H     -2.52460   -0.87680   -0.01898
H      2.52747    0.87055   -0.04171
H      2.57839   -0.44571    0.74201
H     -0.77522    0.08407   -2.42153
H      0.77001   -0.10212   -2.42549
