23

O      0.43091   -0.11866   -2.56533
O     -0.52170   -2.07818   -0.23040
O      0.08708    2.13902   -0.31843
P      2.04216   -0.27803    0.50229
N     -2.52746    0.37195   -0.28865
O     -0.64925    0.13074    1.73012
H     -0.44904   -2.37325    0.69366
H      0.25540    2.43204    0.59357
H      2.89828    0.67121   -0.10682
H      2.55647   -1.50733    0.02177
H     -2.88018    1.26080    0.07955
H     -2.75861    0.38692   -1.28709
H      0.00201    0.06919    2.44469
H     -1.49736    0.26955    2.17863
Fe    -0.39383    0.05948   -0.06763
H      2.55749   -0.27978    1.82681
H     -3.12038   -0.36221    0.11080
N      1.16517    2.69351   -1.07327
H      0.81768    3.60816   -1.39149
H      1.18033    2.09519   -1.90674
N      0.34449   -2.95293   -0.95283
H      0.52376   -2.42326   -1.81327
H     -0.25295   -3.74360   -1.22961
