22

O      0.66330   -0.99032   -2.63693
N      2.79878   -0.75498   -0.41972
H      3.21989   -0.62371   -1.34293
H      3.07628   -1.69324   -0.11662
Fe     0.64542   -0.40529   -0.37819
H      3.26331   -0.09277    0.20717
P      0.74142    1.86214   -0.77176
H      0.11540    2.28759   -1.97334
H      0.11517    2.71487    0.17536
P     -0.57439   -2.35469   -0.13449
H     -1.47012   -2.63227   -1.19646
H      0.29271   -3.47767   -0.19043
H     -1.35019   -2.66305    1.01361
P     -1.98622    0.47071   -0.94972
H     -2.37131    0.04025   -2.24560
H     -2.94231   -0.23275   -0.16537
H     -2.60801    1.75281   -0.92983
P      0.54769   -0.01603    1.87723
H      0.89001   -1.10055    2.73393
H     -0.72818    0.31056    2.41412
Br     1.81843    1.56491    2.64416
Br     2.72730    2.72291   -0.92511
