52

O      7.55708   23.23531    6.14499
Fe     6.19221   22.02299    4.82540
N      5.84453   20.29310    5.94606
C      5.58868   19.11901    5.07931
C      4.51793   19.39561    4.03931
P      4.92805   21.01424    3.34178
C      3.53433   22.09618    2.95121
C      4.11101   23.48959    3.11314
N      4.85574   23.65427    4.38534
C      5.96461   20.73133    1.81854
C      7.37927   20.55521    2.35943
N      7.73535   21.53751    3.39361
C      8.97726   21.13592    4.06452
C      7.91087   22.86972    2.80564
H      4.49607   18.63528    3.24208
H      3.16286   21.92324    1.92773
H      2.70158   21.89335    3.64187
H      3.50711   19.43446    4.47344
H      5.89062   21.68186    1.26466
H      8.10886   20.59955    1.53055
H      7.46360   19.55332    2.80622
H      8.70780   22.85656    2.04099
H      6.97678   23.19638    2.33186
H      8.18600   23.57489    3.60062
H      9.82036   21.15055    3.35246
H      9.17597   21.82899    4.89171
H      8.87122   20.11566    4.45269
H      4.81951   23.69794    2.29744
H      3.32030   24.25844    3.04938
C      3.93072   23.65534    5.52532
H      4.50448   23.76017    6.45443
H      3.22509   24.50081    5.44735
H      3.35621   22.72339    5.55333
C      5.56927   24.94147    4.36127
H      6.16075   25.04345    5.27794
H      6.24277   24.98164    3.49847
H      4.84428   25.76944    4.28446
H      5.30070   18.27493    5.72969
H      6.54079   18.85506    4.59975
C      4.62731   20.55049    6.81556
H      3.82335   20.83598    6.12349
H      4.89811   21.43771    7.40737
C      6.98426   19.99832    6.82722
H      6.76074   19.10466    7.43142
H      7.88134   19.81029    6.22935
H      7.17115   20.85650    7.48216
N      5.45489   19.67196    1.02764
H      5.37014   19.88155    0.03766
H      5.92958   18.78277    1.15413
N      4.27546   19.43481    7.58989
H      3.35096   19.05185    7.43203
H      4.48534   19.48911    8.58021
