19

O      0.73864   -0.19981   -2.15416
O     -0.10590   -2.13885    0.11249
O      0.45701    2.04910    0.01512
P      2.66442   -0.38606    0.29266
P     -2.22553    0.28254   -0.92454
O     -0.19929    0.04417    1.85116
H     -0.68028   -2.55002    0.77586
H     -0.20861   -2.66169   -0.69815
H      0.60284    2.49832    0.86165
H      1.09505    2.43688   -0.60628
H      3.21489   -1.45310   -0.46677
H     -2.38730    1.24743   -1.95659
H      0.37968   -0.22737    2.57891
H     -1.02912    0.31306    2.27257
Fe     0.18858   -0.05214   -0.14231
H      3.26191   -0.65625    1.55798
H     -3.31886    0.66526   -0.09332
Br    -2.95938   -1.53617   -1.85346
Br     3.77573    1.34128   -0.39148
