23

O      0.26814   -0.49588   -1.97549
O     -0.55757   -2.21379    0.00973
O      0.18933    2.08207   -0.28257
P      2.30972   -0.55754    0.05634
N     -2.24773    0.26999   -0.68454
O     -0.47882    0.27163    1.69224
H     -1.00076   -2.62368    0.76677
H     -0.43493   -2.90309   -0.66011
H      3.16724    0.33118   -0.64201
H      2.77127   -1.79303   -0.46383
H     -2.43252    1.00441   -1.37311
H     -2.76118   -0.55271   -1.01433
H     -0.05123   -0.17854    2.43422
H     -0.23636    1.24145    1.77340
Fe    -0.14937   -0.17672   -0.43647
H      2.94239   -0.56589    1.32942
H     -2.69841    0.55799    0.18877
N      0.24389    2.71179    0.98275
H      1.19077    3.09130    1.11489
H     -0.41483    3.50186    0.97497
N      0.49817    2.81617   -1.41346
H     -0.13512    3.62353   -1.46170
H      1.46051    3.16516   -1.32741
