53

O      5.97310   23.02586    6.96786
Fe     6.30051   22.55668    5.75234
P      5.96305   20.40450    6.28031
C      5.72755   19.12103    5.00520
C      4.66040   19.29689    3.92825
C      4.15343   21.76838    3.88700
C      4.38715   23.16960    3.32464
P      5.01921   24.11324    4.74702
C      5.84853   20.76230    2.18052
C      7.23171   20.84522    2.79764
P      7.60520   22.19466    3.96125
C      9.21214   21.71380    4.65995
C      8.03799   23.60028    2.89793
H      4.75621   18.43278    3.25122
H      4.91492   21.73728    4.79023
H      3.67895   19.16300    4.40905
H      5.68467   21.62835    1.52005
H      5.87384   19.90262    1.49045
H      7.98118   20.95684    1.99472
H      7.49838   19.91757    3.31801
H      8.87040   23.30912    2.23749
H      7.18689   23.90536    2.27469
H      8.35705   24.44934    3.51990
H      9.94291   21.53687    3.85392
H      9.59012   22.51812    5.31050
H      9.09508   20.79787    5.25588
H      5.17827   23.15833    2.56461
H      3.48715   23.60431    2.85975
C      3.61073   24.41565    5.83261
H      3.97451   24.97477    6.70735
H      2.83824   24.99951    5.30672
H      3.19854   23.46036    6.18307
C      5.55769   25.75058    4.21985
H      5.96196   26.28356    5.09506
H      6.32779   25.69697    3.44157
H      4.68615   26.30721    3.83763
H      5.46734   18.22234    5.59356
H      6.71945   18.90236    4.58625
C      4.29662   20.46367    7.17933
H      3.60334   20.93389    6.46039
H      4.01612   19.39860    7.27062
C      7.08188   19.65271    7.48373
H      6.69468   18.66454    7.78194
H      8.09213   19.53493    7.06656
H      7.13593   20.30990    8.36182
C      4.62312   20.56174    3.06419
H      3.79781   20.39785    2.34675
N      4.28152   21.10798    8.41961
H      4.52257   22.09928    8.37628
H      4.75842   20.62686    9.17626
N      2.85724   21.61179    4.40181
H      2.22012   22.39021    4.28390
H      2.40444   20.71918    4.24064
