52

O      7.29390   23.00154    5.89054
Fe     6.45539   22.25676    5.07985
N      6.10771   20.52687    6.20051
C      5.85186   19.35278    5.33376
C      4.78111   19.62938    4.29376
P      5.19123   21.24801    3.59623
C      3.79751   22.32995    3.20566
C      4.37419   23.72336    3.36759
N      5.11892   23.88804    4.63979
C      6.22779   20.96510    2.07299
C      7.64245   20.78898    2.61388
N      7.99853   21.77128    3.64806
C      9.24044   21.36969    4.31897
C      8.17405   23.10349    3.06009
H      4.75925   18.86905    3.49653
H      3.42604   22.15701    2.18218
H      2.96476   22.12712    3.89632
H      3.77029   19.66823    4.72789
H      6.15380   21.91563    1.51911
H      8.37204   20.83332    1.78500
H      7.72678   19.78709    3.06067
H      8.97098   23.09033    2.29544
H      7.23996   23.43015    2.58631
H      8.44918   23.80866    3.85507
H     10.08354   21.38432    3.60691
H      9.43915   22.06276    5.14616
H      9.13440   20.34943    4.70714
H      5.08269   23.93171    2.55189
H      3.58348   24.49221    3.30383
C      4.19390   23.88911    5.77977
H      4.76766   23.99394    6.70888
H      3.48827   24.73458    5.70180
H      3.61939   22.95716    5.80778
C      5.83245   25.17524    4.61572
H      6.42393   25.27722    5.53239
H      6.50595   25.21541    3.75292
H      5.10746   26.00321    4.53891
H      5.56388   18.50870    5.98414
H      6.80397   19.08883    4.85420
C      4.89049   20.78426    7.07001
H      4.08653   21.06975    6.37794
H      5.16129   21.67148    7.66182
C      7.24744   20.23209    7.08167
H      7.02392   19.33843    7.68587
H      8.14452   20.04406    6.48380
H      7.43433   21.09027    7.73661
N      5.71807   19.90573    1.28209
H      5.63332   20.11532    0.29211
H      6.19276   19.01654    1.40858
N      4.53864   19.66858    7.84434
H      3.61414   19.28562    7.68648
H      4.74852   19.72288    8.83466
