17

O      0.00000    0.00000    1.45152
Fe     0.00000    0.00000    0.14848
O     -0.02532   -2.04942    0.10672
O      0.01885    2.04941    0.10300
O     -2.09136   -0.00340   -0.04181
O      2.09172    0.00000   -0.03776
O      0.00000    0.00000   -1.90152
H      0.26040   -2.63210   -0.61890
H      0.04961   -2.57039    0.92686
H     -0.25655    2.63228   -0.62638
H     -0.05040    2.57471    0.92081
H     -2.58023    0.46315    0.66245
H     -2.52460   -0.87680   -0.07959
H      2.52747    0.87055   -0.10231
H      2.57839   -0.44571    0.68141
H     -0.77522    0.08407   -2.48214
H      0.77001   -0.10212   -2.48610
