33

O      6.95973   22.84472    7.26330
Fe     6.16100   21.58353    4.70779
N      5.91761   19.51352    5.24970
C      5.60968   18.63093    4.11641
C      4.44713   19.06618    3.23965
C      3.86612   21.60793    3.16898
C      4.35873   22.98355    2.73775
N      5.66195   23.25149    3.35892
C      5.79129   20.54708    1.60561
C      7.19832   20.51451    2.14485
N      7.50003   20.99696    3.32550
H      4.33392   18.25465    2.50241
H      2.78806   21.55365    2.93841
H      3.50161   19.03128    3.80927
H      5.72383   21.47777    1.01652
H      5.73633   19.75192    0.84557
H      4.39660   23.06493    1.64170
H      3.62975   23.73822    3.07298
H      5.39484   17.61126    4.48137
H      6.52328   18.54853    3.51083
C      4.51359   20.38488    2.44887
H      3.78003   20.22965    1.64126
H      6.79149   19.21136    5.69001
H      5.21637   19.41445    5.98875
H      8.49610   20.96875    3.55335
H      6.41110   23.32545    2.67099
H      5.66285   24.13588    3.87035
N      8.11348   20.02349    1.30759
H      9.10478   20.03385    1.52953
H      7.85852   19.67482    0.38999
N      4.05037   21.55879    4.62364
H      3.61662   22.36591    5.08059
H      3.59526   20.73722    5.02071
