23

O      0.40040   -0.59698   -2.46300
O     -0.68983   -2.11269    0.49724
O      0.18933    2.08207   -0.28257
P      2.30972   -0.55754    0.05634
N     -2.37999    0.37109   -0.19703
O     -0.47882    0.27163    1.69224
H     -1.13302   -2.52258    1.25428
H     -0.56719   -2.80199   -0.17260
H      3.16724    0.33118   -0.64201
H      2.77127   -1.79303   -0.46383
H     -2.56478    1.10551   -0.88560
H     -2.89344   -0.45161   -0.52682
H     -0.05123   -0.17854    2.43422
H     -0.23636    1.24145    1.77340
Fe    -0.28163   -0.07562    0.05104
H      2.94239   -0.56589    1.32942
H     -2.83067    0.65909    0.67628
N      0.24389    2.71179    0.98275
H      1.19077    3.09130    1.11489
H     -0.41483    3.50186    0.97497
N      0.49817    2.81617   -1.41346
H     -0.13512    3.62353   -1.46170
H      1.46051    3.16516   -1.32741
