17

O      0.00000    0.00000    1.47172
Fe     0.00000    0.00000    0.12828
O     -0.02532   -2.04942    0.08651
O      0.01885    2.04941    0.08280
O     -2.09136   -0.00340   -0.06201
O      2.09172    0.00000   -0.05796
O      0.00000    0.00000   -1.92172
H      0.26040   -2.63210   -0.63910
H      0.04961   -2.57039    0.90666
H     -0.25655    2.63228   -0.64658
H     -0.05040    2.57471    0.90060
H     -2.58023    0.46315    0.64225
H     -2.52460   -0.87680   -0.09979
H      2.52747    0.87055   -0.12252
H      2.57839   -0.44571    0.66120
H     -0.77522    0.08407   -2.50234
H      0.77001   -0.10212   -2.50630
