36

O      7.63584   22.56634    6.70837
Fe     6.17307   21.80697    5.14345
N      5.39974   20.10352    5.91852
C      5.61264   19.10336    4.84256
C      4.62769   19.30408    3.69588
C      3.75710   21.82144    3.10171
C      4.48581   23.14774    3.31809
N      4.95832   23.37164    4.69702
C      5.75214   20.73169    1.81913
C      7.15081   20.73062    2.37423
O      7.30901   21.66544    3.47723
H      4.80583   18.43803    3.03890
H      3.23224   22.03987    2.15622
H      3.62223   19.12302    4.10902
H      5.59071   21.64495    1.22475
H      5.77249   19.91667    1.07523
H      7.86200   21.03737    1.59004
H      7.45321   19.73148    2.73020
H      5.35444   23.24785    2.65157
H      3.78817   23.96186    3.05537
H      6.65417   19.24973    4.50260
C      4.53716   20.50865    2.73250
H      3.80330   20.08021    2.03089
H      5.91771   19.83895    6.76329
H      4.41082   20.12105    6.18901
H      8.24674   21.88947    3.59200
H      5.45680   24.26409    4.77730
H      4.16403   23.44189    5.34218
C      2.66663   21.60707    4.13603
H      2.01378   22.49153    4.21069
H      2.02191   20.75740    3.86781
H      3.06351   21.40421    5.14465
C      5.50854   17.69687    5.40800
H      5.74668   16.95538    4.63111
H      6.21334   17.54717    6.24113
H      4.48587   17.49838    5.76742
