24

O     -0.20600    0.67818   -2.79010
N      2.22174    0.31369   -0.97544
H      2.49217    0.31916   -1.96345
H      2.61665   -0.53507   -0.55951
Fe     0.09706    0.31492   -0.87806
H      2.69702    1.09780   -0.52223
P      0.27629    3.03788   -0.55478
H      1.11728    3.57301   -1.56651
H     -0.87528    3.83357   -0.80306
H      0.79082    3.72520    0.58078
P     -0.20068   -2.18094   -1.32815
H     -0.75509   -2.53322   -2.58381
H      0.94590   -3.01171   -1.28481
H     -1.05685   -2.89094   -0.44426
P     -2.17029    0.73390   -0.47763
H     -2.78153    1.57073   -1.45713
H     -2.95232   -0.44427   -0.58003
P      0.11872   -0.19900    1.46301
H      0.14983    0.83591    2.43503
H     -0.96551   -0.97134    1.95176
N     -2.47980    1.22086    1.10483
H     -2.14650    2.15358    1.34717
H     -3.43237    1.08974    1.45428
Br     1.83512   -1.42264    1.99695
