17

O      0.00000    0.00000    1.97677
Fe     0.00000    0.00000   -0.37677
O     -0.02532   -2.04942   -0.41854
O      0.01885    2.04941   -0.42225
O     -2.09136   -0.00340   -0.56706
O      2.09172    0.00000   -0.56301
O      0.00000    0.00000   -2.42677
H      0.26040   -2.63210   -1.14415
H      0.04961   -2.57039    0.40161
H     -0.25655    2.63228   -1.15163
H     -0.05040    2.57471    0.39555
H     -2.58023    0.46315    0.13720
H     -2.52460   -0.87680   -0.60484
H      2.52747    0.87055   -0.62757
H      2.57839   -0.44571    0.15615
H     -0.77522    0.08407   -3.00739
H      0.77001   -0.10212   -3.01135
