14

H 0.000000 0.000000 0.000000
H 0.000000 0.000000 0.721212
H 0.000000 0.000000 1.442424
H 0.000000 0.000000 2.163636
H 0.000000 0.000000 2.884848
H 0.000000 0.000000 3.606061
H 0.000000 0.000000 4.327273
H 0.000000 0.000000 5.048485
H 0.000000 0.000000 5.769697
H 0.000000 0.000000 6.490909
H 0.000000 0.000000 7.212121
H 0.000000 0.000000 7.933333
H 0.000000 0.000000 8.654545
H 0.000000 0.000000 9.375758
