22

O      0.65966   -0.87129   -2.17736
N      2.79878   -0.75498   -0.41972
H      3.21989   -0.62371   -1.34293
H      3.07628   -1.69324   -0.11662
Fe     0.64906   -0.52432   -0.83776
H      3.26331   -0.09277    0.20717
P      0.74506    1.74311   -1.23133
H      0.11904    2.16856   -2.43291
H      0.11881    2.59584   -0.28421
P     -0.57075   -2.47372   -0.59406
H     -1.46648   -2.75130   -1.65603
H      0.29635   -3.59670   -0.65000
H     -1.34655   -2.78208    0.55404
P     -1.98622    0.47071   -0.94972
H     -2.37131    0.04025   -2.24560
H     -2.94231   -0.23275   -0.16537
H     -2.60801    1.75281   -0.92983
P      0.55133   -0.13506    1.41766
H      0.89365   -1.21958    2.27436
H     -0.72454    0.19153    1.95455
Br     1.82207    1.44588    2.18459
Br     2.73094    2.60388   -1.38468
