18

O      0.68469   -0.08737   -2.07386
O     -0.26866   -2.08415   -0.20566
O      0.46342    2.06728   -0.16017
N      2.30022   -0.40002    0.13895
O     -1.87800    0.34074   -0.54394
O     -0.33312    0.05252    1.71435
H     -0.49212   -2.50381    0.64521
H      0.38417    2.52298    0.69772
H      2.89540    0.33585   -0.25535
H      2.61818   -1.26956   -0.30152
H     -2.16696    1.17628   -0.94383
H     -2.43112   -0.34195   -0.95570
H      0.09815   -0.02801    2.57767
H     -1.27174    0.21562    1.89506
Fe     0.27404   -0.03584   -0.41773
H      2.54506   -0.47082    1.13049
Br     1.27294    3.26723   -1.31794
Br     0.13420   -3.46306   -1.37734
