29

O     11.68078    7.13592   13.40152
Fe    13.61138    7.57184   11.42378
N     15.07979    7.83543    9.69882
N     12.47290    8.35371    9.89815
O     15.16300    8.66415   12.27242
N     14.17883    5.64164   10.99360
C     14.56314    8.95371    8.87988
H     14.91159    8.85178    7.83418
C     13.06595    8.90528    8.90739
C     16.37439    8.06262   10.32727
H     16.83980    7.08593   10.55534
H     17.09773    8.58349    9.67732
C     16.24746    8.72767   11.67593
C     15.04394    6.56918    8.96434
H     14.25410    6.60233    8.19055
H     15.97993    6.37334    8.40796
C     14.70103    5.42054    9.84653
H     12.51045    9.41547    8.10237
H     14.87530    4.39863    9.46708
H     13.92014    4.81641   11.54421
H     11.44915    8.40732    9.90699
C     14.95744   10.34261    9.36964
H     14.62541   10.51755   10.40260
H     16.04086   10.50315    9.28473
H     14.47962   11.10236    8.73213
C     17.42066    9.39289   12.26224
H     17.30141    9.53467   13.34495
H     18.35243    8.85528   12.02142
H     17.51195   10.38850   11.78548
