23

O      0.26433    0.00977   -1.94629
O     -0.34171   -2.14590   -0.36927
O      0.07797    2.13762   -0.25050
P      2.33252   -0.04712    0.03278
N     -2.22255    0.34417   -0.82895
O     -0.50235   -0.00774    1.78455
H     -0.29125   -2.72988    0.40104
H     -0.04963   -2.67424   -1.12796
H      0.21245    2.33993    0.69112
H      3.21709    0.03327   -1.07401
H      2.79249   -1.24296    0.63965
H     -2.64341    0.99851   -0.16320
H     -2.40096    0.75275   -1.75172
H     -1.32007   -0.07150    2.31196
Fe    -0.08792   -0.01269   -0.67101
H      2.86908    0.94036    0.88807
H     -2.78835   -0.50957   -0.79171
N      0.63723   -0.17022    2.58810
H      0.63611    0.57358    3.29585
H      0.55295   -1.05986    3.09300
N      1.30087    2.56617   -0.86762
H      1.15845    3.56836   -1.05404
H      1.24400    2.10899   -1.78554
