22

O      0.66369   -1.00298   -2.68582
N      2.79878   -0.75498   -0.41972
H      3.21989   -0.62371   -1.34293
H      3.07628   -1.69324   -0.11662
Fe     0.64503   -0.39263   -0.32930
H      3.26331   -0.09277    0.20717
P      0.74103    1.87480   -0.72287
H      0.11501    2.30025   -1.92445
H      0.11478    2.72753    0.22425
P     -0.57478   -2.34203   -0.08560
H     -1.47051   -2.61961   -1.14757
H      0.29232   -3.46501   -0.14154
H     -1.35058   -2.65039    1.06250
P     -1.98622    0.47071   -0.94972
H     -2.37131    0.04025   -2.24560
H     -2.94231   -0.23275   -0.16537
H     -2.60801    1.75281   -0.92983
P      0.54730   -0.00337    1.92612
H      0.88962   -1.08789    2.78282
H     -0.72857    0.32322    2.46301
Br     1.81804    1.57757    2.69305
Br     2.72691    2.73557   -0.87622
