23

O      0.25895    0.00942   -1.92682
O     -0.34171   -2.14590   -0.36927
O      0.07797    2.13762   -0.25050
P      2.33790   -0.04677    0.01331
N     -2.21717    0.34452   -0.84842
O     -0.50235   -0.00774    1.78455
H     -0.29125   -2.72988    0.40104
H     -0.04963   -2.67424   -1.12796
H      0.21245    2.33993    0.69112
H      3.22247    0.03362   -1.09348
H      2.79787   -1.24261    0.62018
H     -2.63803    0.99886   -0.18267
H     -2.39558    0.75310   -1.77119
H     -1.32007   -0.07150    2.31196
Fe    -0.08254   -0.01234   -0.69048
H      2.87446    0.94071    0.86860
H     -2.78297   -0.50922   -0.81118
N      0.63723   -0.17022    2.58810
H      0.63611    0.57358    3.29585
H      0.55295   -1.05986    3.09300
N      1.30087    2.56617   -0.86762
H      1.15845    3.56836   -1.05404
H      1.24400    2.10899   -1.78554
