23

O      0.31083   -0.09273   -2.20168
O     -0.52170   -2.07818   -0.23040
O      0.08708    2.13902   -0.31843
P      2.16224   -0.30396    0.13864
N     -2.40738    0.34602   -0.65230
O     -0.64925    0.13074    1.73012
H     -0.44904   -2.37325    0.69366
H      0.25540    2.43204    0.59357
H      3.01836    0.64528   -0.47047
H      2.67655   -1.53326   -0.34188
H     -2.76010    1.23487   -0.28410
H     -2.63853    0.36099   -1.65074
H      0.00201    0.06919    2.44469
H     -1.49736    0.26955    2.17863
Fe    -0.27375    0.03355   -0.43128
H      2.67757   -0.30571    1.46316
H     -3.00030   -0.38814   -0.25285
N      1.16517    2.69351   -1.07327
H      0.81768    3.60816   -1.39149
H      1.18033    2.09519   -1.90674
N      0.34449   -2.95293   -0.95283
H      0.52376   -2.42326   -1.81327
H     -0.25295   -3.74360   -1.22961
