22

O      0.66407   -1.01565   -2.73471
N      2.79878   -0.75498   -0.41972
H      3.21989   -0.62371   -1.34293
H      3.07628   -1.69324   -0.11662
Fe     0.64465   -0.37996   -0.28041
H      3.26331   -0.09277    0.20717
P      0.74065    1.88747   -0.67398
H      0.11463    2.31292   -1.87556
H      0.11440    2.74020    0.27314
P     -0.57516   -2.32936   -0.03671
H     -1.47089   -2.60694   -1.09868
H      0.29194   -3.45234   -0.09265
H     -1.35096   -2.63772    1.11139
P     -1.98622    0.47071   -0.94972
H     -2.37131    0.04025   -2.24560
H     -2.94231   -0.23275   -0.16537
H     -2.60801    1.75281   -0.92983
P      0.54692    0.00930    1.97501
H      0.88924   -1.07522    2.83171
H     -0.72895    0.33589    2.51190
Br     1.81766    1.59024    2.74194
Br     2.72653    2.74824   -0.82733
