18

O      0.65310   -0.08340   -1.94647
O     -0.23707   -2.08812   -0.33305
O      0.49501    2.06331   -0.28756
N      2.33181   -0.40399    0.01156
O     -1.87800    0.34074   -0.54394
O     -0.33312    0.05252    1.71435
H     -0.46053   -2.50778    0.51782
H      0.41576    2.51901    0.57033
H      2.92699    0.33188   -0.38274
H      2.64977   -1.27353   -0.42891
H     -2.16696    1.17628   -0.94383
H     -2.43112   -0.34195   -0.95570
H      0.09815   -0.02801    2.57767
H     -1.27174    0.21562    1.89506
Fe     0.30563   -0.03981   -0.54512
H      2.57665   -0.47479    1.00310
Br     1.30453    3.26326   -1.44533
Br     0.16579   -3.46703   -1.50473
