33

O      6.75800   22.52619    6.61788
Fe     6.36273   21.90206    5.35321
N      6.11934   19.83205    5.89512
C      5.81141   18.94946    4.76183
C      4.64886   19.38471    3.88507
C      4.06785   21.92646    3.81440
C      4.56046   23.30208    3.38317
N      5.86368   23.57002    4.00434
C      5.99302   20.86561    2.25103
C      7.40005   20.83304    2.79027
N      7.70176   21.31549    3.97092
H      4.53565   18.57318    3.14783
H      2.98979   21.87218    3.58383
H      3.70334   19.34981    4.45469
H      5.92556   21.79630    1.66194
H      5.93806   20.07045    1.49099
H      4.59833   23.38346    2.28712
H      3.83148   24.05675    3.71840
H      5.59657   17.92979    5.12679
H      6.72501   18.86706    4.15625
C      4.71532   20.70341    3.09429
H      3.98176   20.54818    2.28668
H      6.99322   19.52989    6.33543
H      5.41810   19.73298    6.63417
H      8.69783   21.28728    4.19877
H      6.61283   23.64398    3.31641
H      5.86458   24.45441    4.51577
N      8.31521   20.34202    1.95301
H      9.30651   20.35238    2.17495
H      8.06025   19.99335    1.03541
N      4.25210   21.87732    5.26906
H      3.81835   22.68444    5.72601
H      3.79699   21.05575    5.66613
