24

O     -0.26195    0.74525   -3.14309
N      2.27769    0.24662   -0.62245
H      2.54812    0.25209   -1.61046
H      2.67260   -0.60214   -0.20652
Fe     0.15301    0.24785   -0.52507
H      2.75297    1.03073   -0.16924
P      0.27629    3.03788   -0.55478
H      1.11728    3.57301   -1.56651
H     -0.87528    3.83357   -0.80306
H      0.79082    3.72520    0.58078
P     -0.20068   -2.18094   -1.32815
H     -0.75509   -2.53322   -2.58381
H      0.94590   -3.01171   -1.28481
H     -1.05685   -2.89094   -0.44426
P     -2.11434    0.66683   -0.12464
H     -2.72558    1.50366   -1.10414
H     -2.89637   -0.51134   -0.22704
P      0.17467   -0.26607    1.81600
H      0.20578    0.76884    2.78802
H     -0.90956   -1.03841    2.30475
N     -2.42385    1.15379    1.45782
H     -2.09055    2.08651    1.70016
H     -3.37642    1.02267    1.80727
Br     1.89107   -1.48971    2.34994
