10

H 0.000000 0.000000 0.000000
H 0.000000 0.000000 2.806061
H 0.000000 0.000000 5.612121
H 0.000000 0.000000 8.418182
H 0.000000 0.000000 11.224242
H 0.000000 0.000000 14.030303
H 0.000000 0.000000 16.836364
H 0.000000 0.000000 19.642424
H 0.000000 0.000000 22.448485
H 0.000000 0.000000 25.254545
