53

O      5.88694   23.14933    7.28774
Fe     6.38667   22.43321    5.43246
P      6.04921   20.28103    5.96043
C      5.81371   18.99756    4.68532
C      4.74656   19.17342    3.60837
C      4.23959   21.64491    3.56712
C      4.47331   23.04613    3.00476
P      5.10537   23.98977    4.42714
C      5.93469   20.63883    1.86064
C      7.31787   20.72175    2.47776
P      7.69136   22.07119    3.64137
C      9.29830   21.59033    4.34007
C      8.12415   23.47681    2.57805
H      4.84237   18.30931    2.93134
H      5.00108   21.61381    4.47035
H      3.76511   19.03953    4.08917
H      5.77083   21.50488    1.20017
H      5.96000   19.77915    1.17057
H      8.06734   20.83337    1.67484
H      7.58454   19.79410    2.99813
H      8.95656   23.18565    1.91761
H      7.27305   23.78189    1.95481
H      8.44321   24.32587    3.20002
H     10.02907   21.41340    3.53404
H      9.67628   22.39465    4.99062
H      9.18124   20.67440    4.93600
H      5.26443   23.03486    2.24473
H      3.57331   23.48084    2.53987
C      3.69689   24.29218    5.51273
H      4.06067   24.85130    6.38747
H      2.92440   24.87604    4.98684
H      3.28470   23.33689    5.86319
C      5.64385   25.62711    3.89997
H      6.04812   26.16009    4.77518
H      6.41395   25.57350    3.12169
H      4.77231   26.18374    3.51775
H      5.55350   18.09887    5.27368
H      6.80561   18.77889    4.26637
C      4.38278   20.34020    6.85945
H      3.68950   20.81042    6.14051
H      4.10228   19.27513    6.95074
C      7.16804   19.52924    7.16385
H      6.78084   18.54107    7.46206
H      8.17829   19.41146    6.74668
H      7.22209   20.18643    8.04194
C      4.70928   20.43827    2.74431
H      3.88397   20.27438    2.02687
N      4.36768   20.98451    8.09973
H      4.60873   21.97581    8.05640
H      4.84458   20.50339    8.85638
N      2.94340   21.48832    4.08193
H      2.30628   22.26674    3.96402
H      2.49060   20.59571    3.92076
