54

O      7.03871   22.69895    6.30404
Fe     6.34654   22.31725    5.31944
P      6.15724   20.28854    6.39058
C      5.42648   18.99201    5.31708
C      4.40680   19.66805    4.42202
P      5.22495   21.16038    3.76981
C      3.97473   22.30927    3.13430
C      4.51345   23.70892    3.34561
N      5.16703   23.95862    4.65402
C      6.33046   20.62364    2.40271
C      7.76461   20.58655    2.89997
P      8.09385   22.15729    3.78544
C      9.70333   22.01954    4.58852
C      8.36626   23.35796    2.45387
H      4.04534   19.02309    3.60426
H      3.77306   22.12968    2.06583
H      3.04179   22.11898    3.67888
H      3.52948   20.00757    4.99683
H      6.21437   21.35510    1.58637
H      5.99147   19.64975    2.01343
H      8.48514   20.43685    2.07861
H      7.91449   19.76948    3.62328
H      9.17170   22.98316    1.80106
H      7.45952   23.50883    1.85258
H      8.68118   24.31994    2.88445
H     10.48214   21.78058    3.84678
H      9.92661   22.98456    5.06847
H      9.67681   21.25142    5.37095
H      5.28346   23.90187    2.58492
H      3.71939   24.45939    3.18694
C      4.21071   24.18636    5.75638
H      4.82069   24.48858    6.61584
H      3.56668   25.04733    5.50030
C      5.99950   25.18099    4.45254
H      6.70845   24.92604    3.65545
H      5.32979   25.95915    4.04059
H      4.98973   18.18655    5.93002
H      6.24312   18.54688    4.72608
C      5.14763   20.30566    7.88915
H      4.09556   20.50863    7.64774
H      5.22587   19.32204    8.37974
H      5.52259   21.08577    8.56472
C      7.77397   19.68666    6.91044
H      7.65237   18.75368    7.48421
H      8.40195   19.48976    6.03146
H      8.24835   20.45852    7.53349
C      6.74041   25.72852    5.64165
H      6.07173   26.12196    6.42005
H      7.40847   24.97929    6.08526
H      7.34949   26.57709    5.29352
C      3.38778   22.97901    6.13193
H      3.00021   23.09359    7.15458
H      2.52624   22.81361    5.47269
H      4.02242   22.07594    6.11357
