45

O     -0.32730   -2.99180    0.76542
Fe    -0.23245   -2.32426    1.73602
N      1.87670   -2.45340    2.20971
N      0.27912   -0.43826    0.92874
N     -2.26940   -1.99628    2.34564
O     -0.16708   -2.17973    3.91513
C     -0.04970   -0.36027   -0.50232
C      1.73633   -0.27312    1.12552
C      2.22466   -1.02573    2.34111
C      2.68109   -3.10896    1.17142
C     -0.45551    0.58562    1.70821
C     -1.96291    0.43623    1.74989
C     -2.50322   -0.58703    2.72206
C     -3.15309   -2.41273    1.24611
C      1.06650   -2.52506    4.52453
C      1.87207   -3.21726    3.45439
C     -1.37818   -2.55854    4.57099
C     -2.37540   -2.90421    3.48263
H     -2.96757   -3.46687    1.00748
H     -4.20578   -2.28114    1.54275
H     -2.94328   -1.81047    0.35530
H      0.22598    0.63029   -0.90224
H      0.48951   -1.14779   -1.04208
H     -1.12263   -0.52046   -0.65473
H      1.98565    0.79668    1.22559
H      2.24338   -0.62660    0.21943
H      2.52702   -2.61106    0.20890
H      3.75034   -3.07724    1.43990
H      2.35749   -4.15058    1.06846
H      1.74390   -0.61985    3.23951
H      3.31399   -0.89217    2.46085
H      2.88492   -3.49105    3.79816
H     -1.21771   -3.44872    5.19749
H     -1.72686   -1.73284    5.21151
H     -2.18672   -3.92036    3.10135
H     -2.04540   -0.41829    3.70506
H     -3.58998   -0.45231    2.85189
H     -2.35722    1.40867    2.08646
H     -2.38525    0.30695    0.74306
H     -0.05597    0.57273    2.73444
H     -0.19840    1.56963    1.27587
H      1.56627   -1.61742    4.90393
H      0.92036   -3.20474    5.37716
Br     0.93507   -4.89512    3.08980
Br    -4.12627   -2.96527    4.28977
