23

O      0.28315    0.01097   -2.01444
O     -0.34171   -2.14590   -0.36927
O      0.07797    2.13762   -0.25050
P      2.31370   -0.04832    0.10093
N     -2.24137    0.34297   -0.76080
O     -0.50235   -0.00774    1.78455
H     -0.29125   -2.72988    0.40104
H     -0.04963   -2.67424   -1.12796
H      0.21245    2.33993    0.69112
H      3.19827    0.03207   -1.00586
H      2.77367   -1.24416    0.70780
H     -2.66223    0.99731   -0.09505
H     -2.41978    0.75155   -1.68357
H     -1.32007   -0.07150    2.31196
Fe    -0.10674   -0.01389   -0.60286
H      2.85026    0.93916    0.95622
H     -2.80717   -0.51077   -0.72356
N      0.63723   -0.17022    2.58810
H      0.63611    0.57358    3.29585
H      0.55295   -1.05986    3.09300
N      1.30087    2.56617   -0.86762
H      1.15845    3.56836   -1.05404
H      1.24400    2.10899   -1.78554
