45

O     -0.34352   -3.10591    0.59950
Fe    -0.21623   -2.21015    1.90194
N      1.89292   -2.33929    2.37563
N      0.29534   -0.32415    1.09466
N     -2.25318   -1.88217    2.51156
O     -0.15086   -2.06562    4.08105
C     -0.03348   -0.24616   -0.33640
C      1.75255   -0.15901    1.29144
C      2.24088   -0.91162    2.50703
C      2.69731   -2.99485    1.33734
C     -0.43929    0.69973    1.87413
C     -1.94669    0.55034    1.91581
C     -2.48700   -0.47292    2.88798
C     -3.13687   -2.29862    1.41203
C      1.08272   -2.41095    4.69045
C      1.88829   -3.10315    3.62031
C     -1.36196   -2.44443    4.73691
C     -2.35918   -2.79010    3.64855
H     -2.95135   -3.35276    1.17340
H     -4.18956   -2.16703    1.70867
H     -2.92706   -1.69636    0.52122
H      0.24220    0.74440   -0.73632
H      0.50573   -1.03368   -0.87616
H     -1.10641   -0.40635   -0.48881
H      2.00187    0.91079    1.39151
H      2.25960   -0.51249    0.38535
H      2.54324   -2.49695    0.37482
H      3.76656   -2.96313    1.60582
H      2.37371   -4.03647    1.23438
H      1.76012   -0.50574    3.40543
H      3.33021   -0.77806    2.62677
H      2.90114   -3.37694    3.96408
H     -1.20149   -3.33461    5.36341
H     -1.71064   -1.61873    5.37743
H     -2.17050   -3.80625    3.26727
H     -2.02918   -0.30418    3.87098
H     -3.57376   -0.33820    3.01781
H     -2.34100    1.52278    2.25238
H     -2.36903    0.42106    0.90898
H     -0.03975    0.68684    2.90036
H     -0.18218    1.68374    1.44179
H      1.58249   -1.50331    5.06985
H      0.93658   -3.09063    5.54308
Br     0.95129   -4.78101    3.25572
Br    -4.11005   -2.85116    4.45569
