23

O      0.36920    0.01645   -2.32596
O     -0.34171   -2.14590   -0.36927
O      0.07797    2.13762   -0.25050
P      2.22765   -0.05380    0.41245
N     -2.32742    0.33749   -0.44928
O     -0.50235   -0.00774    1.78455
H     -0.29125   -2.72988    0.40104
H     -0.04963   -2.67424   -1.12796
H      0.21245    2.33993    0.69112
H      3.11222    0.02659   -0.69434
H      2.68762   -1.24964    1.01932
H     -2.74828    0.99183    0.21647
H     -2.50583    0.74607   -1.37205
H     -1.32007   -0.07150    2.31196
Fe    -0.19279   -0.01937   -0.29134
H      2.76421    0.93368    1.26774
H     -2.89322   -0.51625   -0.41204
N      0.63723   -0.17022    2.58810
H      0.63611    0.57358    3.29585
H      0.55295   -1.05986    3.09300
N      1.30087    2.56617   -0.86762
H      1.15845    3.56836   -1.05404
H      1.24400    2.10899   -1.78554
