54

O      7.44847   22.92491    6.88692
Fe     5.93678   22.09129    4.73656
P      5.74748   20.06258    5.80770
C      5.01672   18.76605    4.73420
C      3.99704   19.44209    3.83914
P      4.81519   20.93442    3.18693
C      3.56497   22.08331    2.55142
C      4.10369   23.48296    2.76273
N      4.75727   23.73266    4.07114
C      5.92070   20.39768    1.81983
C      7.35485   20.36059    2.31709
P      7.68409   21.93133    3.20256
C      9.29357   21.79358    4.00564
C      7.95650   23.13200    1.87099
H      3.63558   18.79713    3.02138
H      3.36330   21.90372    1.48295
H      2.63203   21.89302    3.09600
H      3.11972   19.78161    4.41395
H      5.80461   21.12914    1.00349
H      5.58171   19.42379    1.43055
H      8.07538   20.21089    1.49573
H      7.50473   19.54352    3.04040
H      8.76194   22.75720    1.21818
H      7.04976   23.28287    1.26970
H      8.27142   24.09398    2.30157
H     10.07238   21.55462    3.26390
H      9.51685   22.75860    4.48559
H      9.26705   21.02546    4.78807
H      4.87370   23.67591    2.00204
H      3.30963   24.23343    2.60406
C      3.80095   23.96040    5.17350
H      4.41093   24.26262    6.03296
H      3.15692   24.82137    4.91742
C      5.58974   24.95503    3.86966
H      6.29869   24.70008    3.07257
H      4.92003   25.73319    3.45771
H      4.57997   17.96059    5.34714
H      5.83336   18.32092    4.14320
C      4.73787   20.07970    7.30627
H      3.68580   20.28267    7.06486
H      4.81611   19.09608    7.79686
H      5.11283   20.85981    7.98184
C      7.36421   19.46070    6.32756
H      7.24261   18.52772    6.90133
H      7.99219   19.26380    5.44858
H      7.83859   20.23256    6.95061
C      6.33065   25.50256    5.05877
H      5.66197   25.89600    5.83717
H      6.99871   24.75333    5.50238
H      6.93973   26.35113    4.71064
C      2.97802   22.75305    5.54905
H      2.59045   22.86763    6.57170
H      2.11648   22.58765    4.88981
H      3.61266   21.84998    5.53069
