17

O      0.00000    0.00000    1.42121
Fe     0.00000    0.00000    0.17879
O     -0.02532   -2.04942    0.13702
O      0.01885    2.04941    0.13330
O     -2.09136   -0.00340   -0.01151
O      2.09172    0.00000   -0.00746
O      0.00000    0.00000   -1.87121
H      0.26040   -2.63210   -0.58860
H      0.04961   -2.57039    0.95716
H     -0.25655    2.63228   -0.59608
H     -0.05040    2.57471    0.95111
H     -2.58023    0.46315    0.69276
H     -2.52460   -0.87680   -0.04928
H      2.52747    0.87055   -0.07201
H      2.57839   -0.44571    0.71171
H     -0.77522    0.08407   -2.45184
H      0.77001   -0.10212   -2.45580
