33

O      6.87795   22.71559    7.00164
Fe     6.24278   21.71266    4.96945
N      5.99939   19.64265    5.51136
C      5.69146   18.76006    4.37807
C      4.52891   19.19531    3.50131
C      3.94790   21.73706    3.43064
C      4.44051   23.11268    2.99941
N      5.74373   23.38062    3.62058
C      5.87307   20.67621    1.86727
C      7.28010   20.64364    2.40651
N      7.58181   21.12609    3.58716
H      4.41570   18.38378    2.76407
H      2.86984   21.68278    3.20007
H      3.58339   19.16041    4.07093
H      5.80561   21.60690    1.27818
H      5.81811   19.88105    1.10723
H      4.47838   23.19406    1.90336
H      3.71153   23.86735    3.33464
H      5.47662   17.74039    4.74303
H      6.60506   18.67766    3.77249
C      4.59537   20.51401    2.71053
H      3.86181   20.35878    1.90292
H      6.87327   19.34049    5.95167
H      5.29815   19.54358    6.25041
H      8.57788   21.09788    3.81501
H      6.49288   23.45458    2.93265
H      5.74463   24.26501    4.13201
N      8.19526   20.15262    1.56925
H      9.18656   20.16298    1.79119
H      7.94030   19.80395    0.65165
N      4.13215   21.68792    4.88530
H      3.69840   22.49504    5.34225
H      3.67704   20.86635    5.28237
