45

O     -0.37838   -3.35125    0.24278
Fe    -0.18137   -1.96481    2.25866
N      1.92778   -2.09395    2.73235
N      0.33020   -0.07881    1.45138
N     -2.21832   -1.63683    2.86828
O     -0.11600   -1.82028    4.43777
C      0.00138   -0.00082    0.02032
C      1.78741    0.08633    1.64816
C      2.27574   -0.66628    2.86375
C      2.73217   -2.74951    1.69406
C     -0.40443    0.94507    2.23085
C     -1.91183    0.79568    2.27253
C     -2.45214   -0.22758    3.24470
C     -3.10201   -2.05328    1.76875
C      1.11758   -2.16561    5.04717
C      1.92315   -2.85781    3.97703
C     -1.32710   -2.19909    5.09363
C     -2.32432   -2.54476    4.00527
H     -2.91649   -3.10742    1.53012
H     -4.15470   -1.92169    2.06539
H     -2.89220   -1.45102    0.87794
H      0.27706    0.98974   -0.37960
H      0.54059   -0.78834   -0.51944
H     -1.07155   -0.16101   -0.13209
H      2.03673    1.15613    1.74823
H      2.29446   -0.26715    0.74207
H      2.57810   -2.25161    0.73154
H      3.80142   -2.71779    1.96254
H      2.40857   -3.79113    1.59110
H      1.79498   -0.26040    3.76215
H      3.36507   -0.53272    2.98349
H      2.93600   -3.13160    4.32080
H     -1.16663   -3.08927    5.72013
H     -1.67578   -1.37339    5.73415
H     -2.13564   -3.56091    3.62399
H     -1.99432   -0.05884    4.22770
H     -3.53890   -0.09286    3.37453
H     -2.30614    1.76812    2.60910
H     -2.33417    0.66640    1.26570
H     -0.00489    0.93218    3.25708
H     -0.14732    1.92908    1.79851
H      1.61735   -1.25797    5.42657
H      0.97144   -2.84529    5.89980
Br     0.98615   -4.53567    3.61244
Br    -4.07519   -2.60582    4.81241
