22

O      0.67301   -0.11432   -2.73173
O     -0.13176   -2.17943   -0.07121
O      0.10773    2.16127   -0.26153
P      2.14557   -0.25713    0.76283
O     -2.26622   -0.01452   -0.02003
O     -0.64106    0.01076    1.68341
H     -0.22828   -2.85443   -0.76923
H      0.53141    2.57598    0.50515
H      0.36283    2.70154   -1.02613
H      3.05568    0.78894    0.46315
H      2.78795   -1.35165    0.13298
H     -2.84203    0.37089   -0.69516
H     -2.54726    0.31615    0.93502
H     -0.79213   -1.01458    1.66698
Fe    -0.22599    0.08191    0.01734
H      2.45402   -0.50029    2.12673
N     -0.93253   -2.47185    1.03290
H     -1.88513   -2.68965    0.71559
H     -0.54582   -3.29455    1.51254
N     -1.94509    0.54948    1.82075
H     -2.37163    0.13016    2.65796
H     -1.79979    1.53586    2.06131
