17

O      0.00000    0.00000    2.04747
Fe     0.00000    0.00000   -0.44747
O     -0.02532   -2.04942   -0.48924
O      0.01885    2.04941   -0.49296
O     -2.09136   -0.00340   -0.63777
O      2.09172    0.00000   -0.63372
O      0.00000    0.00000   -2.49747
H      0.26040   -2.63210   -1.21486
H      0.04961   -2.57039    0.33090
H     -0.25655    2.63228   -1.22234
H     -0.05040    2.57471    0.32485
H     -2.58023    0.46315    0.06649
H     -2.52460   -0.87680   -0.67555
H      2.52747    0.87055   -0.69827
H      2.57839   -0.44571    0.08545
H     -0.77522    0.08407   -3.07810
H      0.77001   -0.10212   -3.08206
