53

O      5.86232   23.18460    7.37913
Fe     6.41129   22.39794    5.34107
P      6.07383   20.24576    5.86904
C      5.83833   18.96229    4.59393
C      4.77118   19.13815    3.51698
C      4.26421   21.60964    3.47573
C      4.49793   23.01086    2.91337
P      5.12999   23.95450    4.33575
C      5.95931   20.60356    1.76925
C      7.34249   20.68648    2.38637
P      7.71598   22.03592    3.54998
C      9.32292   21.55506    4.24868
C      8.14877   23.44154    2.48666
H      4.86699   18.27404    2.83995
H      5.02570   21.57854    4.37896
H      3.78973   19.00426    3.99778
H      5.79545   21.46961    1.10878
H      5.98462   19.74388    1.07918
H      8.09196   20.79810    1.58345
H      7.60916   19.75883    2.90674
H      8.98118   23.15038    1.82622
H      7.29767   23.74662    1.86342
H      8.46783   24.29060    3.10863
H     10.05369   21.37813    3.44265
H      9.70090   22.35938    4.89923
H      9.20586   20.63913    4.84461
H      5.28905   22.99959    2.15334
H      3.59793   23.44557    2.44848
C      3.72151   24.25691    5.42134
H      4.08529   24.81603    6.29608
H      2.94902   24.84077    4.89545
H      3.30932   23.30162    5.77180
C      5.66847   25.59184    3.80858
H      6.07274   26.12482    4.68379
H      6.43857   25.53823    3.03030
H      4.79693   26.14847    3.42636
H      5.57812   18.06360    5.18229
H      6.83023   18.74362    4.17498
C      4.40740   20.30493    6.76806
H      3.71412   20.77515    6.04912
H      4.12690   19.23986    6.85935
C      7.19266   19.49397    7.07246
H      6.80546   18.50580    7.37067
H      8.20291   19.37619    6.65529
H      7.24671   20.15116    7.95055
C      4.73390   20.40300    2.65292
H      3.90859   20.23911    1.93548
N      4.39230   20.94924    8.00834
H      4.63335   21.94054    7.96501
H      4.86920   20.46812    8.76499
N      2.96802   21.45305    3.99054
H      2.33090   22.23147    3.87263
H      2.51522   20.56044    3.82937
