14

H 0.000000 0.000000 0.000000
H 0.000000 0.000000 1.836364
H 0.000000 0.000000 3.672727
H 0.000000 0.000000 5.509091
H 0.000000 0.000000 7.345455
H 0.000000 0.000000 9.181818
H 0.000000 0.000000 11.018182
H 0.000000 0.000000 12.854545
H 0.000000 0.000000 14.690909
H 0.000000 0.000000 16.527273
H 0.000000 0.000000 18.363636
H 0.000000 0.000000 20.200000
H 0.000000 0.000000 22.036364
H 0.000000 0.000000 23.872727
