22

O      0.30647   -0.20979   -1.90397
O     -0.66709   -2.13712   -0.38183
O     -0.09606    1.82522   -0.37906
P      2.30990   -0.60991   -0.30811
O     -2.35339    0.11938   -0.75358
O     -0.76755   -0.13725    1.74867
H     -0.72924   -2.43266    0.54358
H     -0.57394    1.88834    0.53422
H      0.30486    2.65892   -0.65877
H      3.23281    0.27149   -0.92376
H      2.74650   -1.87437   -0.77275
H     -2.71514    0.87660   -1.24004
H     -2.86977   -0.64808   -1.04523
H      0.06134   -0.08743    2.25404
Fe    -0.05364   -0.10954   -0.95471
H      2.80476   -0.62746    1.02424
N      0.19404   -3.08776   -1.01502
H     -0.43151   -3.85283   -1.30283
H      0.44633   -2.60182   -1.88377
N     -1.42320    1.10119    2.01296
H     -2.39675    0.90660    1.75224
H     -1.43649    1.24044    3.03273
