22

O      0.64795   -0.10885   -2.65511
O     -0.13176   -2.17943   -0.07121
O      0.10773    2.16127   -0.26153
P      2.17063   -0.26260    0.68621
O     -2.24116   -0.01999   -0.09665
O     -0.64106    0.01076    1.68341
H     -0.22828   -2.85443   -0.76923
H      0.53141    2.57598    0.50515
H      0.36283    2.70154   -1.02613
H      3.08074    0.78347    0.38653
H      2.81301   -1.35712    0.05636
H     -2.81697    0.36542   -0.77178
H     -2.52220    0.31068    0.85840
H     -0.79213   -1.01458    1.66698
Fe    -0.20093    0.07644   -0.05928
H      2.47908   -0.50576    2.05011
N     -0.93253   -2.47185    1.03290
H     -1.88513   -2.68965    0.71559
H     -0.54582   -3.29455    1.51254
N     -1.94509    0.54948    1.82075
H     -2.37163    0.13016    2.65796
H     -1.79979    1.53586    2.06131
