52

O      7.26941   22.97980    5.86687
Fe     6.47988   22.27850    5.10352
N      6.13220   20.54861    6.22418
C      5.87635   19.37452    5.35743
C      4.80560   19.65112    4.31743
P      5.21572   21.26975    3.61990
C      3.82200   22.35169    3.22933
C      4.39868   23.74510    3.39126
N      5.14341   23.90978    4.66346
C      6.25228   20.98684    2.09666
C      7.66694   20.81072    2.63755
N      8.02302   21.79302    3.67173
C      9.26493   21.39143    4.34264
C      8.19854   23.12523    3.08376
H      4.78374   18.89079    3.52020
H      3.45053   22.17875    2.20585
H      2.98925   22.14886    3.91999
H      3.79478   19.68997    4.75156
H      6.17829   21.93737    1.54278
H      8.39653   20.85506    1.80867
H      7.75127   19.80883    3.08434
H      8.99547   23.11207    2.31911
H      7.26445   23.45189    2.60998
H      8.47367   23.83040    3.87874
H     10.10803   21.40606    3.63058
H      9.46364   22.08450    5.16983
H      9.15889   20.37117    4.73081
H      5.10718   23.95345    2.57556
H      3.60797   24.51395    3.32750
C      4.21839   23.91085    5.80344
H      4.79215   24.01568    6.73255
H      3.51276   24.75632    5.72547
H      3.64388   22.97890    5.83145
C      5.85694   25.19698    4.63939
H      6.44842   25.29896    5.55606
H      6.53044   25.23715    3.77659
H      5.13195   26.02495    4.56258
H      5.58837   18.53044    6.00781
H      6.82846   19.11057    4.87787
C      4.91498   20.80600    7.09368
H      4.11102   21.09149    6.40161
H      5.18578   21.69322    7.68549
C      7.27193   20.25383    7.10534
H      7.04841   19.36017    7.70954
H      8.16901   20.06580    6.50747
H      7.45882   21.11201    7.76028
N      5.74256   19.92747    1.30576
H      5.65781   20.13706    0.31578
H      6.21725   19.03828    1.43225
N      4.56313   19.69032    7.86801
H      3.63863   19.30736    7.71015
H      4.77301   19.74462    8.85833
