33

O      6.87522   22.71128    6.99292
Fe     6.24551   21.71697    4.97817
N      6.00212   19.64696    5.52008
C      5.69419   18.76437    4.38679
C      4.53164   19.19962    3.51003
C      3.95063   21.74137    3.43936
C      4.44324   23.11699    3.00813
N      5.74646   23.38493    3.62930
C      5.87580   20.68052    1.87599
C      7.28283   20.64795    2.41523
N      7.58454   21.13040    3.59588
H      4.41843   18.38809    2.77279
H      2.87257   21.68709    3.20879
H      3.58612   19.16472    4.07965
H      5.80834   21.61121    1.28690
H      5.82084   19.88536    1.11595
H      4.48111   23.19837    1.91208
H      3.71426   23.87166    3.34336
H      5.47935   17.74470    4.75175
H      6.60779   18.68197    3.78121
C      4.59810   20.51832    2.71925
H      3.86454   20.36309    1.91164
H      6.87600   19.34480    5.96039
H      5.30088   19.54789    6.25913
H      8.58061   21.10219    3.82373
H      6.49561   23.45889    2.94137
H      5.74736   24.26932    4.14073
N      8.19799   20.15693    1.57797
H      9.18929   20.16729    1.79991
H      7.94303   19.80826    0.66037
N      4.13488   21.69223    4.89402
H      3.70113   22.49935    5.35097
H      3.67977   20.87066    5.29109
