33

O      6.80980   22.60798    6.78360
Fe     6.31093   21.82027    5.18749
N      6.06754   19.75026    5.72940
C      5.75961   18.86767    4.59611
C      4.59706   19.30292    3.71935
C      4.01605   21.84467    3.64868
C      4.50866   23.22029    3.21745
N      5.81188   23.48823    3.83862
C      5.94122   20.78382    2.08531
C      7.34825   20.75125    2.62455
N      7.64996   21.23370    3.80520
H      4.48385   18.49139    2.98211
H      2.93799   21.79039    3.41811
H      3.65154   19.26802    4.28897
H      5.87376   21.71451    1.49622
H      5.88626   19.98866    1.32527
H      4.54653   23.30167    2.12140
H      3.77968   23.97496    3.55268
H      5.54477   17.84800    4.96107
H      6.67321   18.78527    3.99053
C      4.66352   20.62162    2.92857
H      3.92996   20.46639    2.12096
H      6.94142   19.44810    6.16971
H      5.36630   19.65119    6.46845
H      8.64603   21.20549    4.03305
H      6.56103   23.56219    3.15069
H      5.81278   24.37262    4.35005
N      8.26341   20.26023    1.78729
H      9.25471   20.27059    2.00923
H      8.00845   19.91156    0.86969
N      4.20030   21.79553    5.10334
H      3.76655   22.60265    5.56029
H      3.74519   20.97396    5.50041
