53

O      5.84755   23.20577    7.43396
Fe     6.42606   22.37677    5.28624
P      6.08860   20.22459    5.81421
C      5.85310   18.94112    4.53910
C      4.78595   19.11698    3.46215
C      4.27898   21.58847    3.42090
C      4.51270   22.98969    2.85854
P      5.14476   23.93333    4.28092
C      5.97408   20.58239    1.71442
C      7.35726   20.66531    2.33154
P      7.73075   22.01475    3.49515
C      9.33769   21.53389    4.19385
C      8.16354   23.42037    2.43183
H      4.88176   18.25287    2.78512
H      5.04047   21.55737    4.32413
H      3.80450   18.98309    3.94295
H      5.81022   21.44844    1.05395
H      5.99939   19.72271    1.02435
H      8.10673   20.77693    1.52862
H      7.62393   19.73766    2.85191
H      8.99595   23.12921    1.77139
H      7.31244   23.72545    1.80859
H      8.48260   24.26943    3.05380
H     10.06846   21.35696    3.38782
H      9.71567   22.33821    4.84440
H      9.22063   20.61796    4.78978
H      5.30382   22.97842    2.09851
H      3.61270   23.42440    2.39365
C      3.73628   24.23574    5.36651
H      4.10006   24.79486    6.24125
H      2.96379   24.81960    4.84062
H      3.32409   23.28045    5.71697
C      5.68324   25.57067    3.75375
H      6.08751   26.10365    4.62896
H      6.45334   25.51706    2.97547
H      4.81170   26.12730    3.37153
H      5.59289   18.04243    5.12746
H      6.84500   18.72245    4.12015
C      4.42217   20.28376    6.71323
H      3.72889   20.75398    5.99429
H      4.14167   19.21869    6.80452
C      7.20743   19.47280    7.01763
H      6.82023   18.48463    7.31584
H      8.21768   19.35502    6.60046
H      7.26148   20.12999    7.89572
C      4.74867   20.38183    2.59809
H      3.92336   20.21794    1.88065
N      4.40707   20.92807    7.95351
H      4.64812   21.91937    7.91018
H      4.88397   20.44695    8.71016
N      2.98279   21.43188    3.93571
H      2.34567   22.21030    3.81780
H      2.52999   20.53927    3.77454
