18

H 0.000000 0.000000 0.000000
H 0.000000 0.000000 1.909091
H 0.000000 0.000000 3.818182
H 0.000000 0.000000 5.727273
H 0.000000 0.000000 7.636364
H 0.000000 0.000000 9.545455
H 0.000000 0.000000 11.454545
H 0.000000 0.000000 13.363636
H 0.000000 0.000000 15.272727
H 0.000000 0.000000 17.181818
H 0.000000 0.000000 19.090909
H 0.000000 0.000000 21.000000
H 0.000000 0.000000 22.909091
H 0.000000 0.000000 24.818182
H 0.000000 0.000000 26.727273
H 0.000000 0.000000 28.636364
H 0.000000 0.000000 30.545455
H 0.000000 0.000000 32.454545
