22

O      0.66144   -0.92954   -2.40225
N      2.79878   -0.75498   -0.41972
H      3.21989   -0.62371   -1.34293
H      3.07628   -1.69324   -0.11662
Fe     0.64728   -0.46607   -0.61287
H      3.26331   -0.09277    0.20717
P      0.74328    1.80136   -1.00644
H      0.11726    2.22681   -2.20802
H      0.11703    2.65409   -0.05932
P     -0.57253   -2.41547   -0.36917
H     -1.46826   -2.69305   -1.43114
H      0.29457   -3.53845   -0.42511
H     -1.34833   -2.72383    0.77893
P     -1.98622    0.47071   -0.94972
H     -2.37131    0.04025   -2.24560
H     -2.94231   -0.23275   -0.16537
H     -2.60801    1.75281   -0.92983
P      0.54955   -0.07681    1.64255
H      0.89187   -1.16133    2.49925
H     -0.72632    0.24978    2.17944
Br     1.82029    1.50413    2.40948
Br     2.72916    2.66213   -1.15979
