37

O      1.02874    0.44197    3.54411
N      0.05874   -2.05063    0.51097
C      0.96357   -1.99892   -0.65231
H      0.40850   -1.55497   -1.49345
H      1.25713   -3.01940   -0.95702
C     -1.30210   -2.50855    0.16911
H     -1.77662   -2.77429    1.12513
H     -1.26832   -3.41554   -0.46019
C      2.17384   -1.15713   -0.32174
H      2.76699   -1.63569    0.47200
H      2.83494   -1.06739   -1.19971
C     -2.09359   -1.42478   -0.51193
H     -3.14327   -1.74364   -0.62696
H     -1.70032   -1.16570   -1.51140
C      1.60554    1.21688   -0.83983
H      2.58993    1.53737   -1.22404
H      1.04597    0.81406   -1.69780
C     -2.58563    0.94531   -0.13433
H     -3.06784    1.42611    0.72876
H     -3.34307    0.74624   -0.90750
C     -1.45604    1.79043   -0.66990
H     -1.00764    1.32298   -1.55852
H     -1.82166    2.78866   -0.97517
C      0.88381    2.38724   -0.21054
H      1.47333    2.78343    0.63089
H      0.73388    3.20908   -0.93175
N     -0.40152    1.92474    0.34873
Fe    -0.13505   -0.02319    1.20178
N      1.74258    0.15956    0.16234
O     -2.02803   -0.28472    0.34781
H      2.37122    0.47891    0.90219
N      0.52462   -2.78288    1.61682
H      1.35418   -2.33424    2.00183
H      0.76899   -3.73945    1.33851
N     -0.90762    2.62334    1.45354
H     -1.12754    3.59495    1.20761
H     -0.21076    2.61373    2.19901
