23

O      0.46331    0.02245   -2.66669
O     -0.34171   -2.14590   -0.36927
O      0.07797    2.13762   -0.25050
P      2.13354   -0.05980    0.75318
N     -2.42153    0.33149   -0.10855
O     -0.50235   -0.00774    1.78455
H     -0.29125   -2.72988    0.40104
H     -0.04963   -2.67424   -1.12796
H      0.21245    2.33993    0.69112
H      3.01811    0.02059   -0.35361
H      2.59351   -1.25564    1.36005
H     -2.84239    0.98583    0.55720
H     -2.59994    0.74007   -1.03132
H     -1.32007   -0.07150    2.31196
Fe    -0.28690   -0.02537    0.04939
H      2.67010    0.92768    1.60847
H     -2.98733   -0.52225   -0.07131
N      0.63723   -0.17022    2.58810
H      0.63611    0.57358    3.29585
H      0.55295   -1.05986    3.09300
N      1.30087    2.56617   -0.86762
H      1.15845    3.56836   -1.05404
H      1.24400    2.10899   -1.78554
