29

O     -2.53561    2.14421    2.17545
Fe    -2.34645    2.19679   -0.19015
N     -3.59995    3.86210   -0.50134
O     -1.93534    1.69862   -2.01175
N     -0.25701    2.48952   -0.11268
O     -3.61249    0.54828   -0.24238
C     -4.84817    3.63993    0.24659
H     -5.51708    4.50895    0.12504
H     -5.35325    2.74382   -0.13926
H     -4.61583    3.50136    1.30933
C     -2.85298    5.00484    0.04558
H     -1.92324    5.15227   -0.52319
H     -3.45617    5.92632   -0.03119
H     -2.61900    4.81575    1.10165
C     -3.88622    4.05582   -1.92783
H     -4.42804    3.18236   -2.31936
H     -4.52721    4.94363   -2.06888
H     -2.95182    4.21616   -2.48368
H     -1.31125    1.00478   -2.27108
H     -2.51814    1.81556   -2.77573
H      0.14886    2.28233    0.80737
H     -3.85011    0.34305    0.67595
C      0.57581    2.98033   -0.94843
H      1.63598    3.14999   -0.69239
H      0.23604    3.24545   -1.96085
C     -3.79066   -0.61262   -1.06658
H     -3.05147   -1.39091   -0.81204
H     -4.81214   -1.00363   -0.93188
H     -3.66194   -0.29918   -2.10955
