22

O      0.49187   -0.26140   -2.39269
O     -0.66709   -2.13712   -0.38183
O     -0.28146    1.87683    0.10966
P      2.12450   -0.55830    0.18061
O     -2.35339    0.11938   -0.75358
O     -0.76755   -0.13725    1.74867
H     -0.72924   -2.43266    0.54358
H     -0.75934    1.93995    1.02294
H      0.11946    2.71053   -0.17005
H      3.04741    0.32310   -0.43504
H      2.56110   -1.82276   -0.28403
H     -2.71514    0.87660   -1.24004
H     -2.86977   -0.64808   -1.04523
H      0.06134   -0.08743    2.25404
Fe    -0.23904   -0.05793   -0.46599
H      2.61936   -0.57585    1.51296
N      0.19404   -3.08776   -1.01502
H     -0.43151   -3.85283   -1.30283
H      0.44633   -2.60182   -1.88377
N     -1.42320    1.10119    2.01296
H     -2.39675    0.90660    1.75224
H     -1.43649    1.24044    3.03273
