52

O      7.19597   22.91456    5.79586
Fe     6.55332   22.34374    5.17453
N      6.20564   20.61385    6.29519
C      5.94979   19.43976    5.42844
C      4.87904   19.71636    4.38844
P      5.28916   21.33499    3.69091
C      3.89544   22.41693    3.30034
C      4.47212   23.81034    3.46227
N      5.21685   23.97502    4.73447
C      6.32572   21.05208    2.16767
C      7.74038   20.87596    2.70856
N      8.09646   21.85826    3.74274
C      9.33837   21.45667    4.41365
C      8.27198   23.19047    3.15477
H      4.85718   18.95603    3.59121
H      3.52397   22.24399    2.27686
H      3.06269   22.21410    3.99100
H      3.86822   19.75521    4.82257
H      6.25173   22.00261    1.61379
H      8.46997   20.92030    1.87968
H      7.82471   19.87407    3.15535
H      9.06891   23.17731    2.39012
H      7.33789   23.51713    2.68099
H      8.54711   23.89564    3.94975
H     10.18147   21.47130    3.70159
H      9.53708   22.14974    5.24084
H      9.23233   20.43641    4.80182
H      5.18062   24.01869    2.64657
H      3.68141   24.57919    3.39851
C      4.29183   23.97609    5.87445
H      4.86559   24.08092    6.80356
H      3.58620   24.82156    5.79648
H      3.71732   23.04414    5.90246
C      5.93038   25.26222    4.71040
H      6.52186   25.36420    5.62707
H      6.60388   25.30239    3.84760
H      5.20539   26.09019    4.63359
H      5.66181   18.59568    6.07882
H      6.90190   19.17581    4.94888
C      4.98842   20.87124    7.16469
H      4.18446   21.15673    6.47262
H      5.25922   21.75846    7.75650
C      7.34537   20.31907    7.17635
H      7.12185   19.42541    7.78055
H      8.24245   20.13104    6.57848
H      7.53226   21.17725    7.83129
N      5.81600   19.99271    1.37677
H      5.73125   20.20230    0.38679
H      6.29069   19.10352    1.50326
N      4.63657   19.75556    7.93902
H      3.71207   19.37260    7.78116
H      4.84645   19.80986    8.92934
