17

O      0.00000    0.00000    1.59293
Fe     0.00000    0.00000    0.00707
O     -0.02532   -2.04942   -0.03470
O      0.01885    2.04941   -0.03841
O     -2.09136   -0.00340   -0.18323
O      2.09172    0.00000   -0.17917
O      0.00000    0.00000   -2.04293
H      0.26040   -2.63210   -0.76031
H      0.04961   -2.57039    0.78545
H     -0.25655    2.63228   -0.76779
H     -0.05040    2.57471    0.77939
H     -2.58023    0.46315    0.52104
H     -2.52460   -0.87680   -0.22100
H      2.52747    0.87055   -0.24373
H      2.57839   -0.44571    0.53999
H     -0.77522    0.08407   -2.62355
H      0.77001   -0.10212   -2.62751
