22

O      0.65951   -0.86622   -2.15780
N      2.79878   -0.75498   -0.41972
H      3.21989   -0.62371   -1.34293
H      3.07628   -1.69324   -0.11662
Fe     0.64921   -0.52939   -0.85732
H      3.26331   -0.09277    0.20717
P      0.74521    1.73804   -1.25089
H      0.11919    2.16349   -2.45247
H      0.11896    2.59077   -0.30377
P     -0.57060   -2.47879   -0.61362
H     -1.46633   -2.75637   -1.67559
H      0.29650   -3.60177   -0.66956
H     -1.34640   -2.78715    0.53448
P     -1.98622    0.47071   -0.94972
H     -2.37131    0.04025   -2.24560
H     -2.94231   -0.23275   -0.16537
H     -2.60801    1.75281   -0.92983
P      0.55148   -0.14013    1.39810
H      0.89380   -1.22465    2.25480
H     -0.72439    0.18646    1.93499
Br     1.82222    1.44081    2.16503
Br     2.73109    2.59881   -1.40424
