19

O      0.68549   -0.18554   -1.95978
O     -0.05275   -2.15312   -0.08189
O      0.51016    2.03483   -0.17926
P      2.71757   -0.40033    0.09828
P     -2.22553    0.28254   -0.92454
O     -0.19929    0.04417    1.85116
H     -0.62713   -2.56429    0.58148
H     -0.15546   -2.67596   -0.89253
H      0.65599    2.48405    0.66727
H      1.14820    2.42261   -0.80066
H      3.26804   -1.46737   -0.66115
H     -2.38730    1.24743   -1.95659
H      0.37968   -0.22737    2.57891
H     -1.02912    0.31306    2.27257
Fe     0.24173   -0.06641   -0.33669
H      3.31506   -0.67052    1.36360
H     -3.31886    0.66526   -0.09332
Br    -2.95938   -1.53617   -1.85346
Br     3.82888    1.32701   -0.58586
