17

O      0.00000    0.00000    2.09798
Fe     0.00000    0.00000   -0.49798
O     -0.02532   -2.04942   -0.53975
O      0.01885    2.04941   -0.54346
O     -2.09136   -0.00340   -0.68828
O      2.09172    0.00000   -0.68422
O      0.00000    0.00000   -2.54798
H      0.26040   -2.63210   -1.26536
H      0.04961   -2.57039    0.28040
H     -0.25655    2.63228   -1.27284
H     -0.05040    2.57471    0.27434
H     -2.58023    0.46315    0.01599
H     -2.52460   -0.87680   -0.72605
H      2.52747    0.87055   -0.74878
H      2.57839   -0.44571    0.03494
H     -0.77522    0.08407   -3.12860
H      0.77001   -0.10212   -3.13256
