23

O      0.27607   -0.08522   -2.09641
O     -0.52170   -2.07818   -0.23040
O      0.08708    2.13902   -0.31843
P      2.19700   -0.31147    0.03337
N     -2.37262    0.33851   -0.75757
O     -0.64925    0.13074    1.73012
H     -0.44904   -2.37325    0.69366
H      0.25540    2.43204    0.59357
H      3.05312    0.63777   -0.57574
H      2.71131   -1.54077   -0.44715
H     -2.72534    1.22736   -0.38937
H     -2.60377    0.35348   -1.75601
H      0.00201    0.06919    2.44469
H     -1.49736    0.26955    2.17863
Fe    -0.23899    0.02604   -0.53655
H      2.71233   -0.31322    1.35789
H     -2.96554   -0.39565   -0.35812
N      1.16517    2.69351   -1.07327
H      0.81768    3.60816   -1.39149
H      1.18033    2.09519   -1.90674
N      0.34449   -2.95293   -0.95283
H      0.52376   -2.42326   -1.81327
H     -0.25295   -3.74360   -1.22961
