24

O     -0.18891    0.65769   -2.68224
N      2.20465    0.33418   -1.08330
H      2.47508    0.33965   -2.07131
H      2.59956   -0.51458   -0.66737
Fe     0.07997    0.33541   -0.98592
H      2.67993    1.11829   -0.63009
P      0.27629    3.03788   -0.55478
H      1.11728    3.57301   -1.56651
H     -0.87528    3.83357   -0.80306
H      0.79082    3.72520    0.58078
P     -0.20068   -2.18094   -1.32815
H     -0.75509   -2.53322   -2.58381
H      0.94590   -3.01171   -1.28481
H     -1.05685   -2.89094   -0.44426
P     -2.18738    0.75439   -0.58549
H     -2.79862    1.59122   -1.56499
H     -2.96941   -0.42378   -0.68789
P      0.10163   -0.17851    1.35515
H      0.13274    0.85640    2.32717
H     -0.98260   -0.95085    1.84390
N     -2.49689    1.24135    0.99697
H     -2.16359    2.17407    1.23931
H     -3.44946    1.11023    1.34642
Br     1.81803   -1.40215    1.88909
