22

O      0.66121   -0.92194   -2.37292
N      2.79878   -0.75498   -0.41972
H      3.21989   -0.62371   -1.34293
H      3.07628   -1.69324   -0.11662
Fe     0.64751   -0.47367   -0.64220
H      3.26331   -0.09277    0.20717
P      0.74351    1.79376   -1.03577
H      0.11749    2.21921   -2.23735
H      0.11726    2.64649   -0.08865
P     -0.57230   -2.42307   -0.39850
H     -1.46803   -2.70065   -1.46047
H      0.29480   -3.54605   -0.45444
H     -1.34810   -2.73143    0.74960
P     -1.98622    0.47071   -0.94972
H     -2.37131    0.04025   -2.24560
H     -2.94231   -0.23275   -0.16537
H     -2.60801    1.75281   -0.92983
P      0.54978   -0.08441    1.61322
H      0.89210   -1.16893    2.46992
H     -0.72609    0.24218    2.15011
Br     1.82052    1.49653    2.38015
Br     2.72939    2.65453   -1.18912
