17

O      0.00000    0.00000    1.60303
Fe     0.00000    0.00000   -0.00303
O     -0.02532   -2.04942   -0.04480
O      0.01885    2.04941   -0.04851
O     -2.09136   -0.00340   -0.19333
O      2.09172    0.00000   -0.18927
O      0.00000    0.00000   -2.05303
H      0.26040   -2.63210   -0.77042
H      0.04961   -2.57039    0.77535
H     -0.25655    2.63228   -0.77789
H     -0.05040    2.57471    0.76929
H     -2.58023    0.46315    0.51094
H     -2.52460   -0.87680   -0.23110
H      2.52747    0.87055   -0.25383
H      2.57839   -0.44571    0.52989
H     -0.77522    0.08407   -2.63365
H      0.77001   -0.10212   -2.63761
