23

O     11.79603    6.99913   13.23024
Fe    13.28376    7.43959   11.62527
N     14.82648    7.76633    9.93650
N     12.20431    8.41491   10.18580
O     14.71771    8.85452   12.40331
N     14.00146    5.57970   11.25292
C     14.31176    8.87960    9.13427
H     14.75952    9.83214    9.47572
H     14.61840    8.80583    8.07547
C     12.83712    9.01722    9.24943
C     16.06977    8.04654   10.62244
H     16.49576    7.09251   10.99053
C     15.81832    8.86410   11.87041
C     14.87320    6.50002    9.20828
H     14.08554    6.48360    8.43562
H     15.83258    6.36383    8.67834
C     14.59239    5.34973   10.13103
H     12.32301    9.67349    8.52569
H     16.66365    9.43558   12.31139
H     13.78653    4.76469   11.83606
H     11.19249    8.57703   10.22711
Br    17.44292    8.84157    9.52843
Br    15.06674    3.68270    9.54422
