22

O      0.65827   -0.82570   -2.00135
N      2.79878   -0.75498   -0.41972
H      3.21989   -0.62371   -1.34293
H      3.07628   -1.69324   -0.11662
Fe     0.65045   -0.56991   -1.01377
H      3.26331   -0.09277    0.20717
P      0.74645    1.69752   -1.40734
H      0.12043    2.12297   -2.60892
H      0.12020    2.55025   -0.46022
P     -0.56936   -2.51931   -0.77007
H     -1.46509   -2.79689   -1.83204
H      0.29774   -3.64229   -0.82601
H     -1.34516   -2.82767    0.37803
P     -1.98622    0.47071   -0.94972
H     -2.37131    0.04025   -2.24560
H     -2.94231   -0.23275   -0.16537
H     -2.60801    1.75281   -0.92983
P      0.55272   -0.18065    1.24165
H      0.89504   -1.26517    2.09835
H     -0.72315    0.14594    1.77854
Br     1.82346    1.40029    2.00858
Br     2.73233    2.55829   -1.56069
