33

O      6.94338   22.81889    7.21097
Fe     6.17735   21.60936    4.76012
N      5.93396   19.53935    5.30203
C      5.62603   18.65676    4.16874
C      4.46348   19.09201    3.29198
C      3.88247   21.63376    3.22131
C      4.37508   23.00938    2.79008
N      5.67830   23.27732    3.41125
C      5.80764   20.57291    1.65794
C      7.21467   20.54034    2.19718
N      7.51638   21.02279    3.37783
H      4.35027   18.28048    2.55474
H      2.80441   21.57948    2.99074
H      3.51796   19.05711    3.86160
H      5.74018   21.50360    1.06885
H      5.75268   19.77775    0.89790
H      4.41295   23.09076    1.69403
H      3.64610   23.76405    3.12531
H      5.41119   17.63709    4.53370
H      6.53963   18.57436    3.56316
C      4.52994   20.41071    2.50120
H      3.79638   20.25548    1.69359
H      6.80784   19.23719    5.74234
H      5.23272   19.44028    6.04108
H      8.51245   20.99458    3.60568
H      6.42745   23.35128    2.72332
H      5.67920   24.16171    3.92268
N      8.12983   20.04932    1.35992
H      9.12113   20.05968    1.58186
H      7.87487   19.70065    0.44232
N      4.06672   21.58462    4.67597
H      3.63297   22.39174    5.13292
H      3.61161   20.76305    5.07304
