23

O      0.39615   -0.11115   -2.46006
O     -0.52170   -2.07818   -0.23040
O      0.08708    2.13902   -0.31843
P      2.07692   -0.28554    0.39702
N     -2.49270    0.36444   -0.39392
O     -0.64925    0.13074    1.73012
H     -0.44904   -2.37325    0.69366
H      0.25540    2.43204    0.59357
H      2.93304    0.66370   -0.21209
H      2.59123   -1.51484   -0.08350
H     -2.84542    1.25329   -0.02572
H     -2.72385    0.37941   -1.39236
H      0.00201    0.06919    2.44469
H     -1.49736    0.26955    2.17863
Fe    -0.35907    0.05197   -0.17290
H      2.59225   -0.28729    1.72154
H     -3.08562   -0.36972    0.00553
N      1.16517    2.69351   -1.07327
H      0.81768    3.60816   -1.39149
H      1.18033    2.09519   -1.90674
N      0.34449   -2.95293   -0.95283
H      0.52376   -2.42326   -1.81327
H     -0.25295   -3.74360   -1.22961
