24

O     -0.23709    0.71544   -2.98621
N      2.25283    0.27643   -0.77933
H      2.52326    0.28190   -1.76734
H      2.64774   -0.57233   -0.36340
Fe     0.12815    0.27766   -0.68195
H      2.72811    1.06054   -0.32612
P      0.27629    3.03788   -0.55478
H      1.11728    3.57301   -1.56651
H     -0.87528    3.83357   -0.80306
H      0.79082    3.72520    0.58078
P     -0.20068   -2.18094   -1.32815
H     -0.75509   -2.53322   -2.58381
H      0.94590   -3.01171   -1.28481
H     -1.05685   -2.89094   -0.44426
P     -2.13920    0.69664   -0.28152
H     -2.75044    1.53347   -1.26102
H     -2.92123   -0.48153   -0.38392
P      0.14981   -0.23626    1.65912
H      0.18092    0.79865    2.63114
H     -0.93442   -1.00860    2.14787
N     -2.44871    1.18360    1.30094
H     -2.11541    2.11632    1.54328
H     -3.40128    1.05248    1.65039
Br     1.86621   -1.45990    2.19306
