23

O      0.37447   -0.57715   -2.36741
O     -0.66390   -2.13252    0.40165
O      0.18933    2.08207   -0.28257
P      2.30972   -0.55754    0.05634
N     -2.35406    0.35126   -0.29262
O     -0.47882    0.27163    1.69224
H     -1.10709   -2.54241    1.15869
H     -0.54126   -2.82182   -0.26819
H      3.16724    0.33118   -0.64201
H      2.77127   -1.79303   -0.46383
H     -2.53885    1.08568   -0.98119
H     -2.86751   -0.47144   -0.62241
H     -0.05123   -0.17854    2.43422
H     -0.23636    1.24145    1.77340
Fe    -0.25570   -0.09545   -0.04455
H      2.94239   -0.56589    1.32942
H     -2.80474    0.63926    0.58069
N      0.24389    2.71179    0.98275
H      1.19077    3.09130    1.11489
H     -0.41483    3.50186    0.97497
N      0.49817    2.81617   -1.41346
H     -0.13512    3.62353   -1.46170
H      1.46051    3.16516   -1.32741
