29

O     12.05017    7.21933   13.02311
Fe    13.24199    7.48843   11.80219
N     14.71040    7.75202   10.07723
N     12.10351    8.27030   10.27656
O     14.79361    8.58074   12.65083
N     13.80944    5.55823   11.37201
C     14.19375    8.87030    9.25829
H     14.54220    8.76837    8.21259
C     12.69656    8.82187    9.28580
C     16.00500    7.97921   10.70568
H     16.47041    7.00252   10.93375
H     16.72834    8.50008   10.05573
C     15.87807    8.64426   12.05434
C     14.67455    6.48577    9.34275
H     13.88471    6.51892    8.56896
H     15.61054    6.28993    8.78637
C     14.33164    5.33713   10.22494
H     12.14106    9.33206    8.48078
H     14.50591    4.31522    9.84549
H     13.55075    4.73300   11.92262
H     11.07976    8.32391   10.28540
C     14.58805   10.25920    9.74805
H     14.25602   10.43414   10.78101
H     15.67147   10.41974    9.66314
H     14.11023   11.01895    9.11054
C     17.05127    9.30948   12.64065
H     16.93202    9.45126   13.72336
H     17.98304    8.77187   12.39983
H     17.14256   10.30509   12.16389
