23

O     11.82969    7.00910   13.19393
Fe    13.25010    7.42962   11.66158
N     14.79282    7.75636    9.97281
N     12.17065    8.40494   10.22211
O     14.68405    8.84455   12.43962
N     13.96780    5.56973   11.28923
C     14.27810    8.86963    9.17058
H     14.72586    9.82217    9.51203
H     14.58474    8.79586    8.11178
C     12.80346    9.00725    9.28574
C     16.03611    8.03657   10.65875
H     16.46210    7.08254   11.02684
C     15.78466    8.85413   11.90672
C     14.83954    6.49005    9.24459
H     14.05188    6.47363    8.47193
H     15.79892    6.35386    8.71465
C     14.55873    5.33976   10.16734
H     12.28935    9.66352    8.56200
H     16.62999    9.42561   12.34770
H     13.75287    4.75472   11.87237
H     11.15883    8.56706   10.26342
Br    17.40926    8.83160    9.56474
Br    15.03308    3.67273    9.58053
