23

O      0.48482    0.02382   -2.74457
O     -0.34171   -2.14590   -0.36927
O      0.07797    2.13762   -0.25050
P      2.11203   -0.06117    0.83106
N     -2.44304    0.33012   -0.03067
O     -0.50235   -0.00774    1.78455
H     -0.29125   -2.72988    0.40104
H     -0.04963   -2.67424   -1.12796
H      0.21245    2.33993    0.69112
H      2.99660    0.01922   -0.27573
H      2.57200   -1.25701    1.43793
H     -2.86390    0.98446    0.63508
H     -2.62145    0.73870   -0.95344
H     -1.32007   -0.07150    2.31196
Fe    -0.30841   -0.02674    0.12727
H      2.64859    0.92631    1.68635
H     -3.00884   -0.52362    0.00657
N      0.63723   -0.17022    2.58810
H      0.63611    0.57358    3.29585
H      0.55295   -1.05986    3.09300
N      1.30087    2.56617   -0.86762
H      1.15845    3.56836   -1.05404
H      1.24400    2.10899   -1.78554
