36

O      7.40179   22.44484    6.45798
Fe     6.40712   21.92847    5.39384
N      5.63379   20.22502    6.16891
C      5.84669   19.22486    5.09295
C      4.86174   19.42558    3.94627
C      3.99115   21.94294    3.35210
C      4.71986   23.26924    3.56848
N      5.19237   23.49314    4.94741
C      5.98619   20.85319    2.06952
C      7.38486   20.85212    2.62462
O      7.54306   21.78694    3.72762
H      5.03988   18.55953    3.28929
H      3.46629   22.16137    2.40661
H      3.85628   19.24452    4.35941
H      5.82476   21.76645    1.47514
H      6.00654   20.03817    1.32562
H      8.09605   21.15887    1.84043
H      7.68726   19.85298    2.98059
H      5.58849   23.36935    2.90196
H      4.02222   24.08336    3.30576
H      6.88822   19.37123    4.75299
C      4.77121   20.63015    2.98289
H      4.03735   20.20171    2.28128
H      6.15176   19.96045    7.01368
H      4.64487   20.24255    6.43940
H      8.48079   22.01097    3.84239
H      5.69085   24.38559    5.02769
H      4.39808   23.56339    5.59257
C      2.90068   21.72857    4.38642
H      2.24783   22.61303    4.46108
H      2.25596   20.87890    4.11820
H      3.29756   21.52571    5.39504
C      5.74259   17.81837    5.65839
H      5.98073   17.07688    4.88150
H      6.44739   17.66867    6.49152
H      4.71992   17.61988    6.01781
