18

O      0.73815   -0.09407   -2.28946
O     -0.32212   -2.07745    0.00994
O      0.40996    2.07398    0.05543
N      2.24676   -0.39332    0.35455
O     -1.87800    0.34074   -0.54394
O     -0.33312    0.05252    1.71435
H     -0.54558   -2.49711    0.86081
H      0.33071    2.52968    0.91332
H      2.84194    0.34255   -0.03975
H      2.56472   -1.26286   -0.08592
H     -2.16696    1.17628   -0.94383
H     -2.43112   -0.34195   -0.95570
H      0.09815   -0.02801    2.57767
H     -1.27174    0.21562    1.89506
Fe     0.22058   -0.02914   -0.20213
H      2.49160   -0.46412    1.34609
Br     1.21948    3.27393   -1.10234
Br     0.08074   -3.45636   -1.16174
