22

O      0.65881   -0.84343   -2.06980
N      2.79878   -0.75498   -0.41972
H      3.21989   -0.62371   -1.34293
H      3.07628   -1.69324   -0.11662
Fe     0.64991   -0.55218   -0.94532
H      3.26331   -0.09277    0.20717
P      0.74591    1.71525   -1.33889
H      0.11989    2.14070   -2.54047
H      0.11966    2.56798   -0.39177
P     -0.56990   -2.50158   -0.70162
H     -1.46563   -2.77916   -1.76359
H      0.29720   -3.62456   -0.75756
H     -1.34570   -2.80994    0.44648
P     -1.98622    0.47071   -0.94972
H     -2.37131    0.04025   -2.24560
H     -2.94231   -0.23275   -0.16537
H     -2.60801    1.75281   -0.92983
P      0.55218   -0.16292    1.31010
H      0.89450   -1.24744    2.16680
H     -0.72369    0.16367    1.84699
Br     1.82292    1.41802    2.07703
Br     2.73179    2.57602   -1.49224
