19

O      0.62172   -0.16842   -1.72652
O      0.01102   -2.17024   -0.31515
O      0.57393    2.01771   -0.41252
P      2.78134   -0.41745   -0.13498
P     -2.22553    0.28254   -0.92454
O     -0.19929    0.04417    1.85116
H     -0.56336   -2.58141    0.34822
H     -0.09169   -2.69308   -1.12579
H      0.71976    2.46693    0.43401
H      1.21197    2.40549   -1.03392
H      3.33181   -1.48449   -0.89441
H     -2.38730    1.24743   -1.95659
H      0.37968   -0.22737    2.57891
H     -1.02912    0.31306    2.27257
Fe     0.30550   -0.08353   -0.56995
H      3.37883   -0.68764    1.13034
H     -3.31886    0.66526   -0.09332
Br    -2.95938   -1.53617   -1.85346
Br     3.89265    1.30989   -0.81912
