22

O      0.40987   -0.23858   -2.17653
O     -0.66709   -2.13712   -0.38183
O     -0.19946    1.85401   -0.10650
P      2.20650   -0.58112   -0.03555
O     -2.35339    0.11938   -0.75358
O     -0.76755   -0.13725    1.74867
H     -0.72924   -2.43266    0.54358
H     -0.67734    1.91713    0.80678
H      0.20146    2.68771   -0.38621
H      3.12941    0.30028   -0.65120
H      2.64310   -1.84558   -0.50019
H     -2.71514    0.87660   -1.24004
H     -2.86977   -0.64808   -1.04523
H      0.06134   -0.08743    2.25404
Fe    -0.15704   -0.08075   -0.68215
H      2.70136   -0.59867    1.29680
N      0.19404   -3.08776   -1.01502
H     -0.43151   -3.85283   -1.30283
H      0.44633   -2.60182   -1.88377
N     -1.42320    1.10119    2.01296
H     -2.39675    0.90660    1.75224
H     -1.43649    1.24044    3.03273
