54

O      7.45955   22.93102    6.90268
Fe     5.92570   22.08518    4.72080
P      5.73640   20.05647    5.79194
C      5.00564   18.75994    4.71844
C      3.98596   19.43598    3.82338
P      4.80411   20.92831    3.17117
C      3.55389   22.07720    2.53566
C      4.09261   23.47685    2.74697
N      4.74619   23.72655    4.05538
C      5.90962   20.39157    1.80407
C      7.34377   20.35448    2.30133
P      7.67301   21.92522    3.18680
C      9.28249   21.78747    3.98988
C      7.94542   23.12589    1.85523
H      3.62450   18.79102    3.00562
H      3.35222   21.89761    1.46719
H      2.62095   21.88691    3.08024
H      3.10864   19.77550    4.39819
H      5.79353   21.12303    0.98773
H      5.57063   19.41768    1.41479
H      8.06430   20.20478    1.47997
H      7.49365   19.53741    3.02464
H      8.75086   22.75109    1.20242
H      7.03868   23.27676    1.25394
H      8.26034   24.08787    2.28581
H     10.06130   21.54851    3.24814
H      9.50577   22.75249    4.46983
H      9.25597   21.01935    4.77231
H      4.86262   23.66980    1.98628
H      3.29855   24.22732    2.58830
C      3.78987   23.95429    5.15774
H      4.39985   24.25651    6.01720
H      3.14584   24.81526    4.90166
C      5.57866   24.94892    3.85390
H      6.28761   24.69397    3.05681
H      4.90895   25.72708    3.44195
H      4.56889   17.95448    5.33138
H      5.82228   18.31481    4.12744
C      4.72679   20.07359    7.29051
H      3.67472   20.27656    7.04910
H      4.80503   19.08997    7.78110
H      5.10175   20.85370    7.96608
C      7.35313   19.45459    6.31180
H      7.23153   18.52161    6.88557
H      7.98111   19.25769    5.43282
H      7.82751   20.22645    6.93485
C      6.31957   25.49645    5.04301
H      5.65089   25.88989    5.82141
H      6.98763   24.74722    5.48662
H      6.92865   26.34502    4.69488
C      2.96694   22.74694    5.53329
H      2.57937   22.86152    6.55594
H      2.10540   22.58154    4.87405
H      3.60158   21.84387    5.51493
