45

O     -0.36865   -3.28279    0.34233
Fe    -0.19110   -2.03327    2.15911
N      1.91805   -2.16241    2.63280
N      0.32047   -0.14727    1.35183
N     -2.22805   -1.70529    2.76873
O     -0.12573   -1.88874    4.33822
C     -0.00835   -0.06928   -0.07923
C      1.77768    0.01787    1.54861
C      2.26601   -0.73474    2.76420
C      2.72244   -2.81797    1.59451
C     -0.41416    0.87661    2.13130
C     -1.92156    0.72722    2.17298
C     -2.46187   -0.29604    3.14515
C     -3.11174   -2.12174    1.66920
C      1.10785   -2.23407    4.94762
C      1.91342   -2.92627    3.87748
C     -1.33683   -2.26755    4.99408
C     -2.33405   -2.61322    3.90572
H     -2.92622   -3.17588    1.43057
H     -4.16443   -1.99015    1.96584
H     -2.90193   -1.51948    0.77839
H      0.26733    0.92128   -0.47915
H      0.53086   -0.85680   -0.61899
H     -1.08128   -0.22947   -0.23164
H      2.02700    1.08767    1.64868
H      2.28473   -0.33561    0.64252
H      2.56837   -2.32007    0.63199
H      3.79169   -2.78625    1.86299
H      2.39884   -3.85959    1.49155
H      1.78525   -0.32886    3.66260
H      3.35534   -0.60118    2.88394
H      2.92627   -3.20006    4.22125
H     -1.17636   -3.15773    5.62058
H     -1.68551   -1.44185    5.63460
H     -2.14537   -3.62937    3.52444
H     -2.00405   -0.12730    4.12815
H     -3.54863   -0.16132    3.27498
H     -2.31587    1.69966    2.50955
H     -2.34390    0.59794    1.16615
H     -0.01462    0.86372    3.15753
H     -0.15705    1.86062    1.69896
H      1.60762   -1.32643    5.32702
H      0.96171   -2.91375    5.80025
Br     0.97642   -4.60413    3.51289
Br    -4.08492   -2.67428    4.71286
