29

O     -2.52192    2.14801    2.00432
Fe    -2.36014    2.19299   -0.01902
N     -3.61364    3.85830   -0.33021
O     -1.93534    1.69862   -2.01175
N     -0.27070    2.48572    0.05845
O     -3.62618    0.54448   -0.07125
C     -4.86186    3.63613    0.41772
H     -5.53077    4.50515    0.29617
H     -5.36694    2.74002    0.03187
H     -4.62952    3.49756    1.48046
C     -2.86667    5.00104    0.21671
H     -1.93693    5.14847   -0.35206
H     -3.46986    5.92252    0.13994
H     -2.63269    4.81195    1.27278
C     -3.89991    4.05202   -1.75670
H     -4.44173    3.17856   -2.14823
H     -4.54090    4.93983   -1.89775
H     -2.96551    4.21236   -2.31255
H     -1.31125    1.00478   -2.27108
H     -2.51814    1.81556   -2.77573
H      0.13517    2.27853    0.97850
H     -3.86380    0.33925    0.84708
C      0.56212    2.97653   -0.77730
H      1.62229    3.14619   -0.52126
H      0.22235    3.24165   -1.78972
C     -3.80435   -0.61642   -0.89545
H     -3.06516   -1.39471   -0.64091
H     -4.82583   -1.00743   -0.76075
H     -3.67563   -0.30298   -1.93842
