33

O      6.71711   22.46163    6.48705
Fe     6.40362   21.96662    5.48404
N      6.16023   19.89661    6.02595
C      5.85230   19.01402    4.89266
C      4.68975   19.44927    4.01590
C      4.10874   21.99102    3.94523
C      4.60135   23.36664    3.51400
N      5.90457   23.63458    4.13517
C      6.03391   20.93017    2.38186
C      7.44094   20.89760    2.92110
N      7.74265   21.38005    4.10175
H      4.57654   18.63774    3.27866
H      3.03068   21.93674    3.71466
H      3.74423   19.41437    4.58552
H      5.96645   21.86086    1.79277
H      5.97895   20.13501    1.62182
H      4.63922   23.44802    2.41795
H      3.87237   24.12131    3.84923
H      5.63746   17.99435    5.25762
H      6.76590   18.93162    4.28708
C      4.75621   20.76797    3.22512
H      4.02265   20.61274    2.41751
H      7.03411   19.59445    6.46626
H      5.45899   19.79754    6.76500
H      8.73872   21.35184    4.32960
H      6.65372   23.70854    3.44724
H      5.90547   24.51897    4.64660
N      8.35610   20.40658    2.08384
H      9.34740   20.41694    2.30578
H      8.10114   20.05791    1.16624
N      4.29299   21.94188    5.39989
H      3.85924   22.74900    5.85684
H      3.83788   21.12031    5.79696
