37

O      0.94024    0.40660    3.36599
N      0.14724   -2.01526    0.68909
C      1.05207   -1.96355   -0.47419
H      0.49700   -1.51960   -1.31533
H      1.34563   -2.98403   -0.77890
C     -1.21360   -2.47318    0.34723
H     -1.68812   -2.73892    1.30325
H     -1.17982   -3.38017   -0.28207
C      2.26234   -1.12176   -0.14362
H      2.85549   -1.60032    0.65012
H      2.92344   -1.03202   -1.02159
C     -2.00509   -1.38941   -0.33381
H     -3.05477   -1.70827   -0.44884
H     -1.61182   -1.13033   -1.33328
C      1.69404    1.25225   -0.66171
H      2.67843    1.57274   -1.04592
H      1.13447    0.84943   -1.51968
C     -2.49713    0.98068    0.04379
H     -2.97934    1.46148    0.90688
H     -3.25457    0.78161   -0.72938
C     -1.36754    1.82580   -0.49178
H     -0.91914    1.35835   -1.38040
H     -1.73316    2.82403   -0.79705
C      0.97231    2.42261   -0.03242
H      1.56183    2.81880    0.80901
H      0.82238    3.24445   -0.75363
N     -0.31302    1.96011    0.52685
Fe    -0.04655    0.01218    1.37990
N      1.83108    0.19493    0.34046
O     -1.93953   -0.24935    0.52593
H      2.45972    0.51428    1.08031
N      0.61312   -2.74751    1.79494
H      1.44268   -2.29887    2.17995
H      0.85749   -3.70408    1.51663
N     -0.81912    2.65871    1.63166
H     -1.03904    3.63032    1.38573
H     -0.12226    2.64910    2.37713
