36

O      7.83737   22.67096    6.92398
Fe     5.97154   21.70235    4.92784
N      5.19821   19.99890    5.70291
C      5.41111   18.99874    4.62695
C      4.42616   19.19946    3.48027
C      3.55557   21.71682    2.88610
C      4.28428   23.04312    3.10248
N      4.75679   23.26702    4.48141
C      5.55061   20.62707    1.60352
C      6.94928   20.62600    2.15862
O      7.10748   21.56082    3.26162
H      4.60430   18.33341    2.82329
H      3.03071   21.93525    1.94061
H      3.42070   19.01840    3.89341
H      5.38918   21.54033    1.00914
H      5.57096   19.81205    0.85962
H      7.66047   20.93275    1.37443
H      7.25168   19.62686    2.51459
H      5.15291   23.14323    2.43596
H      3.58664   23.85724    2.83976
H      6.45264   19.14511    4.28699
C      4.33563   20.40403    2.51689
H      3.60177   19.97559    1.81528
H      5.71618   19.73433    6.54768
H      4.20929   20.01643    5.97340
H      8.04521   21.78485    3.37639
H      5.25527   24.15947    4.56169
H      3.96250   23.33727    5.12657
C      2.46510   21.50245    3.92042
H      1.81225   22.38691    3.99508
H      1.82038   20.65278    3.65220
H      2.86198   21.29959    4.92904
C      5.30701   17.59225    5.19239
H      5.54515   16.85076    4.41550
H      6.01181   17.44255    6.02552
H      4.28434   17.39376    5.55181
