23

O     11.70852    6.97322   13.32465
Fe    13.37127    7.46550   11.53086
N     14.91399    7.79224    9.84209
N     12.29182    8.44082   10.09139
O     14.80522    8.88043   12.30890
N     14.08897    5.60561   11.15851
C     14.39927    8.90551    9.03986
H     14.84703    9.85805    9.38131
H     14.70591    8.83174    7.98106
C     12.92463    9.04313    9.15502
C     16.15728    8.07245   10.52803
H     16.58327    7.11842   10.89612
C     15.90583    8.89001   11.77600
C     14.96071    6.52593    9.11387
H     14.17305    6.50951    8.34121
H     15.92009    6.38974    8.58393
C     14.67990    5.37564   10.03662
H     12.41052    9.69940    8.43128
H     16.75116    9.46149   12.21698
H     13.87404    4.79060   11.74165
H     11.28000    8.60294   10.13270
Br    17.53043    8.86748    9.43402
Br    15.15425    3.70861    9.44981
