18

O      0.76488   -0.09743   -2.39725
O     -0.34885   -2.07409    0.11773
O      0.38323    2.07734    0.16322
N      2.22003   -0.38996    0.46234
O     -1.87800    0.34074   -0.54394
O     -0.33312    0.05252    1.71435
H     -0.57231   -2.49375    0.96860
H      0.30398    2.53304    1.02111
H      2.81521    0.34591    0.06804
H      2.53799   -1.25950    0.02187
H     -2.16696    1.17628   -0.94383
H     -2.43112   -0.34195   -0.95570
H      0.09815   -0.02801    2.57767
H     -1.27174    0.21562    1.89506
Fe     0.19385   -0.02578   -0.09434
H      2.46487   -0.46076    1.45388
Br     1.19275    3.27729   -0.99455
Br     0.05401   -3.45300   -1.05395
