23

O      0.26555   -0.49390   -1.96593
O     -0.55498   -2.21577    0.00017
O      0.18933    2.08207   -0.28257
P      2.30972   -0.55754    0.05634
N     -2.24514    0.26801   -0.69410
O     -0.47882    0.27163    1.69224
H     -0.99817   -2.62566    0.75721
H     -0.43234   -2.90507   -0.66967
H      3.16724    0.33118   -0.64201
H      2.77127   -1.79303   -0.46383
H     -2.42993    1.00243   -1.38267
H     -2.75859   -0.55469   -1.02389
H     -0.05123   -0.17854    2.43422
H     -0.23636    1.24145    1.77340
Fe    -0.14678   -0.17870   -0.44603
H      2.94239   -0.56589    1.32942
H     -2.69582    0.55601    0.17921
N      0.24389    2.71179    0.98275
H      1.19077    3.09130    1.11489
H     -0.41483    3.50186    0.97497
N      0.49817    2.81617   -1.41346
H     -0.13512    3.62353   -1.46170
H      1.46051    3.16516   -1.32741
