23

O      0.30963   -0.52759   -2.12843
O     -0.59906   -2.18208    0.16267
O      0.18933    2.08207   -0.28257
P      2.30972   -0.55754    0.05634
N     -2.28922    0.30170   -0.53160
O     -0.47882    0.27163    1.69224
H     -1.04225   -2.59197    0.91971
H     -0.47642   -2.87138   -0.50717
H      3.16724    0.33118   -0.64201
H      2.77127   -1.79303   -0.46383
H     -2.47401    1.03612   -1.22017
H     -2.80267   -0.52100   -0.86139
H     -0.05123   -0.17854    2.43422
H     -0.23636    1.24145    1.77340
Fe    -0.19086   -0.14501   -0.28353
H      2.94239   -0.56589    1.32942
H     -2.73990    0.58970    0.34171
N      0.24389    2.71179    0.98275
H      1.19077    3.09130    1.11489
H     -0.41483    3.50186    0.97497
N      0.49817    2.81617   -1.41346
H     -0.13512    3.62353   -1.46170
H      1.46051    3.16516   -1.32741
