29

O     -2.55734    2.13817    2.44725
Fe    -2.32472    2.20283   -0.46195
N     -3.57822    3.86814   -0.77314
O     -1.93534    1.69862   -2.01175
N     -0.23528    2.49556   -0.38448
O     -3.59076    0.55432   -0.51418
C     -4.82644    3.64597   -0.02521
H     -5.49535    4.51499   -0.14676
H     -5.33152    2.74986   -0.41106
H     -4.59410    3.50740    1.03753
C     -2.83125    5.01088   -0.22622
H     -1.90151    5.15831   -0.79499
H     -3.43444    5.93236   -0.30299
H     -2.59727    4.82179    0.82985
C     -3.86449    4.06186   -2.19963
H     -4.40631    3.18840   -2.59116
H     -4.50548    4.94967   -2.34068
H     -2.93009    4.22220   -2.75548
H     -1.31125    1.00478   -2.27108
H     -2.51814    1.81556   -2.77573
H      0.17059    2.28837    0.53557
H     -3.82838    0.34909    0.40415
C      0.59754    2.98637   -1.22023
H      1.65771    3.15603   -0.96419
H      0.25777    3.25149   -2.23265
C     -3.76893   -0.60658   -1.33838
H     -3.02974   -1.38487   -1.08384
H     -4.79041   -0.99759   -1.20368
H     -3.64021   -0.29314   -2.38135
