12

H 0.000000 0.000000 0.000000
H 0.000000 0.000000 2.660606
H 0.000000 0.000000 5.321212
H 0.000000 0.000000 7.981818
H 0.000000 0.000000 10.642424
H 0.000000 0.000000 13.303030
H 0.000000 0.000000 15.963636
H 0.000000 0.000000 18.624242
H 0.000000 0.000000 21.284848
H 0.000000 0.000000 23.945455
H 0.000000 0.000000 26.606061
H 0.000000 0.000000 29.266667
