36

O      7.48631   22.48871    6.54840
Fe     6.32260   21.88460    5.30342
N      5.54927   20.18115    6.07849
C      5.76217   19.18099    5.00253
C      4.77722   19.38171    3.85585
C      3.90663   21.89907    3.26168
C      4.63534   23.22537    3.47806
N      5.10785   23.44927    4.85699
C      5.90167   20.80932    1.97910
C      7.30034   20.80825    2.53420
O      7.45854   21.74307    3.63720
H      4.95536   18.51566    3.19887
H      3.38177   22.11750    2.31619
H      3.77176   19.20065    4.26899
H      5.74024   21.72258    1.38472
H      5.92202   19.99430    1.23520
H      8.01153   21.11500    1.75001
H      7.60274   19.80911    2.89017
H      5.50397   23.32548    2.81154
H      3.93770   24.03949    3.21534
H      6.80370   19.32736    4.66257
C      4.68669   20.58628    2.89247
H      3.95283   20.15784    2.19086
H      6.06724   19.91658    6.92326
H      4.56035   20.19868    6.34898
H      8.39627   21.96710    3.75197
H      5.60633   24.34172    4.93727
H      4.31356   23.51952    5.50215
C      2.81616   21.68470    4.29600
H      2.16331   22.56916    4.37066
H      2.17144   20.83503    4.02778
H      3.21304   21.48184    5.30462
C      5.65807   17.77450    5.56797
H      5.89621   17.03301    4.79108
H      6.36287   17.62480    6.40110
H      4.63540   17.57601    5.92739
