17

O      0.00000    0.00000    1.95657
Fe     0.00000    0.00000   -0.35657
O     -0.02532   -2.04942   -0.39833
O      0.01885    2.04941   -0.40205
O     -2.09136   -0.00340   -0.54686
O      2.09172    0.00000   -0.54281
O      0.00000    0.00000   -2.40657
H      0.26040   -2.63210   -1.12395
H      0.04961   -2.57039    0.42181
H     -0.25655    2.63228   -1.13143
H     -0.05040    2.57471    0.41576
H     -2.58023    0.46315    0.15740
H     -2.52460   -0.87680   -0.58464
H      2.52747    0.87055   -0.60736
H      2.57839   -0.44571    0.17636
H     -0.77522    0.08407   -2.98719
H      0.77001   -0.10212   -2.99115
