23

O      0.38484   -0.58508   -2.40564
O     -0.67427   -2.12459    0.43988
O      0.18933    2.08207   -0.28257
P      2.30972   -0.55754    0.05634
N     -2.36443    0.35919   -0.25439
O     -0.47882    0.27163    1.69224
H     -1.11746   -2.53448    1.19692
H     -0.55163   -2.81389   -0.22996
H      3.16724    0.33118   -0.64201
H      2.77127   -1.79303   -0.46383
H     -2.54922    1.09361   -0.94296
H     -2.87788   -0.46351   -0.58418
H     -0.05123   -0.17854    2.43422
H     -0.23636    1.24145    1.77340
Fe    -0.26607   -0.08752   -0.00632
H      2.94239   -0.56589    1.32942
H     -2.81511    0.64719    0.61892
N      0.24389    2.71179    0.98275
H      1.19077    3.09130    1.11489
H     -0.41483    3.50186    0.97497
N      0.49817    2.81617   -1.41346
H     -0.13512    3.62353   -1.46170
H      1.46051    3.16516   -1.32741
