36

O      7.68785   22.59334    6.76401
Fe     6.12106   21.77997    5.08781
N      5.34773   20.07652    5.86288
C      5.56063   19.07636    4.78692
C      4.57568   19.27708    3.64024
C      3.70509   21.79444    3.04607
C      4.43380   23.12074    3.26245
N      4.90631   23.34464    4.64138
C      5.70013   20.70469    1.76349
C      7.09880   20.70362    2.31859
O      7.25700   21.63844    3.42159
H      4.75382   18.41103    2.98326
H      3.18023   22.01287    2.10058
H      3.57022   19.09602    4.05338
H      5.53870   21.61795    1.16911
H      5.72048   19.88967    1.01959
H      7.80999   21.01037    1.53440
H      7.40120   19.70448    2.67456
H      5.30243   23.22085    2.59593
H      3.73616   23.93486    2.99973
H      6.60216   19.22273    4.44696
C      4.48515   20.48165    2.67686
H      3.75129   20.05321    1.97525
H      5.86570   19.81195    6.70765
H      4.35881   20.09405    6.13337
H      8.19473   21.86247    3.53636
H      5.40479   24.23709    4.72166
H      4.11202   23.41489    5.28654
C      2.61462   21.58007    4.08039
H      1.96177   22.46453    4.15505
H      1.96990   20.73040    3.81217
H      3.01150   21.37721    5.08901
C      5.45653   17.66987    5.35236
H      5.69467   16.92838    4.57547
H      6.16133   17.52017    6.18549
H      4.43386   17.47138    5.71178
