23

O      0.45255    0.02176   -2.62775
O     -0.34171   -2.14590   -0.36927
O      0.07797    2.13762   -0.25050
P      2.14430   -0.05911    0.71424
N     -2.41077    0.33218   -0.14749
O     -0.50235   -0.00774    1.78455
H     -0.29125   -2.72988    0.40104
H     -0.04963   -2.67424   -1.12796
H      0.21245    2.33993    0.69112
H      3.02887    0.02128   -0.39255
H      2.60427   -1.25495    1.32111
H     -2.83163    0.98652    0.51826
H     -2.58918    0.74076   -1.07026
H     -1.32007   -0.07150    2.31196
Fe    -0.27614   -0.02468    0.01045
H      2.68086    0.92837    1.56953
H     -2.97657   -0.52156   -0.11025
N      0.63723   -0.17022    2.58810
H      0.63611    0.57358    3.29585
H      0.55295   -1.05986    3.09300
N      1.30087    2.56617   -0.86762
H      1.15845    3.56836   -1.05404
H      1.24400    2.10899   -1.78554
