33

O      6.89158   22.73711    7.04525
Fe     6.22915   21.69114    4.92584
N      5.98576   19.62113    5.46775
C      5.67783   18.73854    4.33446
C      4.51528   19.17379    3.45770
C      3.93427   21.71554    3.38703
C      4.42688   23.09116    2.95580
N      5.73010   23.35910    3.57697
C      5.85944   20.65469    1.82366
C      7.26647   20.62212    2.36290
N      7.56818   21.10457    3.54355
H      4.40207   18.36226    2.72046
H      2.85621   21.66126    3.15646
H      3.56976   19.13889    4.02732
H      5.79198   21.58538    1.23457
H      5.80448   19.85953    1.06362
H      4.46475   23.17254    1.85975
H      3.69790   23.84583    3.29103
H      5.46299   17.71887    4.69942
H      6.59143   18.65614    3.72888
C      4.58174   20.49249    2.66692
H      3.84818   20.33726    1.85931
H      6.85964   19.31897    5.90806
H      5.28452   19.52206    6.20680
H      8.56425   21.07636    3.77140
H      6.47925   23.43306    2.88904
H      5.73100   24.24349    4.08840
N      8.18163   20.13110    1.52564
H      9.17293   20.14146    1.74758
H      7.92667   19.78243    0.60804
N      4.11852   21.66640    4.84169
H      3.68477   22.47352    5.29864
H      3.66341   20.84483    5.23876
