54

O      7.40971   22.90353    6.83179
Fe     5.97554   22.11267    4.79169
P      5.78624   20.08396    5.86283
C      5.05548   18.78743    4.78933
C      4.03580   19.46347    3.89427
P      4.85395   20.95580    3.24206
C      3.60373   22.10469    2.60655
C      4.14245   23.50434    2.81786
N      4.79603   23.75404    4.12627
C      5.95946   20.41906    1.87496
C      7.39361   20.38197    2.37222
P      7.72285   21.95271    3.25769
C      9.33233   21.81496    4.06077
C      7.99526   23.15338    1.92612
H      3.67434   18.81851    3.07651
H      3.40206   21.92510    1.53808
H      2.67079   21.91440    3.15113
H      3.15848   19.80299    4.46908
H      5.84337   21.15052    1.05862
H      5.62047   19.44517    1.48568
H      8.11414   20.23227    1.55086
H      7.54349   19.56490    3.09553
H      8.80070   22.77858    1.27331
H      7.08852   23.30425    1.32483
H      8.31018   24.11536    2.35670
H     10.11114   21.57600    3.31903
H      9.55561   22.77998    4.54072
H      9.30581   21.04684    4.84320
H      4.91246   23.69729    2.05717
H      3.34839   24.25481    2.65919
C      3.83971   23.98178    5.22863
H      4.44969   24.28400    6.08809
H      3.19568   24.84275    4.97255
C      5.62850   24.97641    3.92479
H      6.33745   24.72146    3.12770
H      4.95879   25.75457    3.51284
H      4.61873   17.98197    5.40227
H      5.87212   18.34230    4.19833
C      4.77663   20.10108    7.36140
H      3.72456   20.30405    7.11999
H      4.85487   19.11746    7.85199
H      5.15159   20.88119    8.03697
C      7.40297   19.48208    6.38269
H      7.28137   18.54910    6.95646
H      8.03095   19.28518    5.50371
H      7.87735   20.25394    7.00574
C      6.36941   25.52394    5.11390
H      5.70073   25.91738    5.89230
H      7.03747   24.77471    5.55751
H      6.97849   26.37251    4.76577
C      3.01678   22.77443    5.60418
H      2.62921   22.88901    6.62683
H      2.15524   22.60903    4.94494
H      3.65142   21.87136    5.58582
