18

H 0.000000 0.000000 0.000000
H 0.000000 0.000000 1.012121
H 0.000000 0.000000 2.024242
H 0.000000 0.000000 3.036364
H 0.000000 0.000000 4.048485
H 0.000000 0.000000 5.060606
H 0.000000 0.000000 6.072727
H 0.000000 0.000000 7.084848
H 0.000000 0.000000 8.096970
H 0.000000 0.000000 9.109091
H 0.000000 0.000000 10.121212
H 0.000000 0.000000 11.133333
H 0.000000 0.000000 12.145455
H 0.000000 0.000000 13.157576
H 0.000000 0.000000 14.169697
H 0.000000 0.000000 15.181818
H 0.000000 0.000000 16.193939
H 0.000000 0.000000 17.206061
