17

O      0.00000    0.00000    2.18889
Fe     0.00000    0.00000   -0.58889
O     -0.02532   -2.04942   -0.63066
O      0.01885    2.04941   -0.63437
O     -2.09136   -0.00340   -0.77919
O      2.09172    0.00000   -0.77513
O      0.00000    0.00000   -2.63889
H      0.26040   -2.63210   -1.35627
H      0.04961   -2.57039    0.18949
H     -0.25655    2.63228   -1.36375
H     -0.05040    2.57471    0.18343
H     -2.58023    0.46315   -0.07492
H     -2.52460   -0.87680   -0.81696
H      2.52747    0.87055   -0.83969
H      2.57839   -0.44571   -0.05597
H     -0.77522    0.08407   -3.21951
H      0.77001   -0.10212   -3.22347
