23

O     11.74891    6.98518   13.28108
Fe    13.33088    7.45354   11.57443
N     14.87360    7.78028    9.88566
N     12.25143    8.42886   10.13496
O     14.76483    8.86847   12.35247
N     14.04858    5.59365   11.20208
C     14.35888    8.89355    9.08343
H     14.80664    9.84609    9.42488
H     14.66552    8.81978    8.02463
C     12.88424    9.03117    9.19859
C     16.11689    8.06049   10.57160
H     16.54288    7.10646   10.93969
C     15.86544    8.87805   11.81957
C     14.92032    6.51397    9.15744
H     14.13266    6.49755    8.38478
H     15.87970    6.37778    8.62750
C     14.63951    5.36368   10.08019
H     12.37013    9.68744    8.47485
H     16.71077    9.44953   12.26055
H     13.83365    4.77864   11.78522
H     11.23961    8.59098   10.17627
Br    17.49004    8.85552    9.47759
Br    15.11386    3.69665    9.49338
