54

O      7.17714   22.77529    6.50096
Fe     6.20811   22.24091    5.12252
P      6.01881   20.21220    6.19366
C      5.28805   18.91567    5.12016
C      4.26837   19.59171    4.22510
P      5.08652   21.08404    3.57289
C      3.83630   22.23293    2.93738
C      4.37502   23.63258    3.14869
N      5.02860   23.88228    4.45710
C      6.19203   20.54730    2.20579
C      7.62618   20.51021    2.70305
P      7.95542   22.08095    3.58852
C      9.56490   21.94320    4.39160
C      8.22783   23.28162    2.25695
H      3.90691   18.94675    3.40734
H      3.63463   22.05334    1.86891
H      2.90336   22.04264    3.48196
H      3.39105   19.93123    4.79991
H      6.07594   21.27876    1.38945
H      5.85304   19.57341    1.81651
H      8.34671   20.36051    1.88169
H      7.77606   19.69314    3.42636
H      9.03327   22.90682    1.60414
H      7.32109   23.43249    1.65566
H      8.54275   24.24360    2.68753
H     10.34371   21.70424    3.64986
H      9.78818   22.90822    4.87155
H      9.53838   21.17508    5.17403
H      5.14503   23.82553    2.38800
H      3.58096   24.38305    2.99002
C      4.07228   24.11002    5.55946
H      4.68226   24.41224    6.41892
H      3.42825   24.97099    5.30338
C      5.86107   25.10465    4.25562
H      6.57002   24.84970    3.45853
H      5.19136   25.88281    3.84367
H      4.85130   18.11021    5.73310
H      6.10469   18.47054    4.52916
C      5.00920   20.22932    7.69223
H      3.95713   20.43229    7.45082
H      5.08744   19.24570    8.18282
H      5.38416   21.00943    8.36780
C      7.63554   19.61032    6.71352
H      7.51394   18.67734    7.28729
H      8.26352   19.41342    5.83454
H      8.10992   20.38218    7.33657
C      6.60198   25.65218    5.44473
H      5.93330   26.04562    6.22313
H      7.27004   24.90295    5.88834
H      7.21106   26.50075    5.09660
C      3.24935   22.90267    5.93501
H      2.86178   23.01725    6.95766
H      2.38781   22.73727    5.27577
H      3.88399   21.99960    5.91665
