29

O     12.11290    7.23349   12.95885
Fe    13.17926    7.47427   11.86645
N     14.64767    7.73786   10.14149
N     12.04078    8.25614   10.34082
O     14.73088    8.56658   12.71509
N     13.74671    5.54407   11.43627
C     14.13102    8.85614    9.32255
H     14.47947    8.75421    8.27685
C     12.63383    8.80771    9.35006
C     15.94227    7.96505   10.76994
H     16.40768    6.98836   10.99801
H     16.66561    8.48592   10.11999
C     15.81534    8.63010   12.11860
C     14.61182    6.47161    9.40701
H     13.82198    6.50476    8.63322
H     15.54781    6.27577    8.85063
C     14.26891    5.32297   10.28920
H     12.07833    9.31790    8.54504
H     14.44318    4.30106    9.90975
H     13.48802    4.71884   11.98688
H     11.01703    8.30975   10.34966
C     14.52532   10.24504    9.81231
H     14.19329   10.41998   10.84527
H     15.60874   10.40558    9.72740
H     14.04750   11.00479    9.17480
C     16.98854    9.29532   12.70491
H     16.86929    9.43710   13.78762
H     17.92031    8.75771   12.46409
H     17.07983   10.29093   12.22815
