52

O      7.56932   23.24618    6.15682
Fe     6.17997   22.01212    4.81357
N      5.83229   20.28223    5.93423
C      5.57644   19.10814    5.06748
C      4.50569   19.38474    4.02748
P      4.91581   21.00337    3.32995
C      3.52209   22.08531    2.93938
C      4.09877   23.47872    3.10131
N      4.84350   23.64340    4.37351
C      5.95237   20.72046    1.80671
C      7.36703   20.54434    2.34760
N      7.72311   21.52664    3.38178
C      8.96502   21.12505    4.05269
C      7.89863   22.85885    2.79381
H      4.48383   18.62441    3.23025
H      3.15062   21.91237    1.91590
H      2.68934   21.88248    3.63004
H      3.49487   19.42359    4.46161
H      5.87838   21.67099    1.25283
H      8.09662   20.58868    1.51872
H      7.45136   19.54245    2.79439
H      8.69556   22.84569    2.02916
H      6.96454   23.18551    2.32003
H      8.17376   23.56402    3.58879
H      9.80812   21.13968    3.34063
H      9.16373   21.81812    4.87988
H      8.85898   20.10479    4.44086
H      4.80727   23.68707    2.28561
H      3.30806   24.24757    3.03755
C      3.91848   23.64447    5.51349
H      4.49224   23.74930    6.44260
H      3.21285   24.48994    5.43552
H      3.34397   22.71252    5.54150
C      5.55703   24.93060    4.34944
H      6.14851   25.03258    5.26611
H      6.23053   24.97077    3.48664
H      4.83204   25.75857    4.27263
H      5.28846   18.26406    5.71786
H      6.52855   18.84419    4.58792
C      4.61507   20.53962    6.80373
H      3.81111   20.82511    6.11166
H      4.88587   21.42684    7.39554
C      6.97202   19.98745    6.81539
H      6.74850   19.09379    7.41959
H      7.86910   19.79942    6.21752
H      7.15891   20.84563    7.47033
N      5.44265   19.66109    1.01581
H      5.35790   19.87068    0.02583
H      5.91734   18.77190    1.14230
N      4.26322   19.42394    7.57806
H      3.33872   19.04098    7.42020
H      4.47310   19.47824    8.56838
