23

O      0.40247   -0.11252   -2.47920
O     -0.52170   -2.07818   -0.23040
O      0.08708    2.13902   -0.31843
P      2.07060   -0.28417    0.41616
N     -2.49902    0.36581   -0.37478
O     -0.64925    0.13074    1.73012
H     -0.44904   -2.37325    0.69366
H      0.25540    2.43204    0.59357
H      2.92672    0.66507   -0.19295
H      2.58491   -1.51347   -0.06436
H     -2.85174    1.25466   -0.00658
H     -2.73017    0.38078   -1.37322
H      0.00201    0.06919    2.44469
H     -1.49736    0.26955    2.17863
Fe    -0.36539    0.05334   -0.15376
H      2.58593   -0.28592    1.74068
H     -3.09194   -0.36835    0.02467
N      1.16517    2.69351   -1.07327
H      0.81768    3.60816   -1.39149
H      1.18033    2.09519   -1.90674
N      0.34449   -2.95293   -0.95283
H      0.52376   -2.42326   -1.81327
H     -0.25295   -3.74360   -1.22961
