53

O      5.94602   23.06466    7.06839
Fe     6.32759   22.51788    5.65181
P      5.99013   20.36570    6.17978
C      5.75463   19.08223    4.90467
C      4.68748   19.25809    3.82772
C      4.18051   21.72958    3.78647
C      4.41423   23.13080    3.22411
P      5.04629   24.07444    4.64649
C      5.87561   20.72350    2.07999
C      7.25879   20.80642    2.69711
P      7.63228   22.15586    3.86072
C      9.23922   21.67500    4.55942
C      8.06507   23.56148    2.79740
H      4.78329   18.39398    3.15069
H      4.94200   21.69848    4.68970
H      3.70603   19.12420    4.30852
H      5.71175   21.58955    1.41952
H      5.90092   19.86382    1.38992
H      8.00826   20.91804    1.89419
H      7.52546   19.87877    3.21748
H      8.89748   23.27032    2.13696
H      7.21397   23.86656    2.17416
H      8.38413   24.41054    3.41937
H      9.96999   21.49807    3.75339
H      9.61720   22.47932    5.20997
H      9.12216   20.75907    5.15535
H      5.20535   23.11953    2.46408
H      3.51423   23.56551    2.75922
C      3.63781   24.37685    5.73208
H      4.00159   24.93597    6.60682
H      2.86532   24.96071    5.20619
H      3.22562   23.42156    6.08254
C      5.58477   25.71178    4.11932
H      5.98904   26.24476    4.99453
H      6.35487   25.65817    3.34104
H      4.71323   26.26841    3.73710
H      5.49442   18.18354    5.49303
H      6.74653   18.86356    4.48572
C      4.32370   20.42487    7.07880
H      3.63042   20.89509    6.35986
H      4.04320   19.35980    7.17009
C      7.10896   19.61391    7.38320
H      6.72176   18.62574    7.68141
H      8.11921   19.49613    6.96603
H      7.16301   20.27110    8.26129
C      4.65020   20.52294    2.96366
H      3.82489   20.35905    2.24622
N      4.30860   21.06918    8.31908
H      4.54965   22.06048    8.27575
H      4.78550   20.58806    9.07573
N      2.88432   21.57299    4.30128
H      2.24720   22.35141    4.18337
H      2.43152   20.68038    4.14011
