36

O      7.55782   22.52584    6.62491
Fe     6.25109   21.84747    5.22691
N      5.47776   20.14402    6.00198
C      5.69066   19.14386    4.92602
C      4.70571   19.34458    3.77934
C      3.83512   21.86194    3.18517
C      4.56383   23.18824    3.40155
N      5.03634   23.41214    4.78048
C      5.83016   20.77219    1.90259
C      7.22883   20.77112    2.45769
O      7.38703   21.70594    3.56069
H      4.88385   18.47853    3.12236
H      3.31026   22.08037    2.23968
H      3.70025   19.16352    4.19248
H      5.66873   21.68545    1.30821
H      5.85051   19.95717    1.15869
H      7.94002   21.07787    1.67350
H      7.53123   19.77198    2.81366
H      5.43246   23.28835    2.73503
H      3.86619   24.00236    3.13883
H      6.73219   19.29023    4.58606
C      4.61518   20.54915    2.81596
H      3.88132   20.12071    2.11435
H      5.99573   19.87945    6.84675
H      4.48884   20.16155    6.27247
H      8.32476   21.92997    3.67546
H      5.53482   24.30459    4.86076
H      4.24205   23.48239    5.42564
C      2.74465   21.64757    4.21949
H      2.09180   22.53203    4.29415
H      2.09993   20.79790    3.95127
H      3.14153   21.44471    5.22811
C      5.58656   17.73737    5.49146
H      5.82470   16.99588    4.71457
H      6.29136   17.58767    6.32459
H      4.56389   17.53888    5.85088
