52

O      7.20209   22.92000    5.80178
Fe     6.54720   22.33830    5.16861
N      6.19952   20.60841    6.28927
C      5.94367   19.43432    5.42252
C      4.87292   19.71092    4.38252
P      5.28304   21.32955    3.68499
C      3.88932   22.41149    3.29442
C      4.46600   23.80490    3.45635
N      5.21073   23.96958    4.72855
C      6.31960   21.04664    2.16175
C      7.73426   20.87052    2.70264
N      8.09034   21.85282    3.73682
C      9.33225   21.45123    4.40773
C      8.26586   23.18503    3.14885
H      4.85106   18.95059    3.58529
H      3.51785   22.23855    2.27094
H      3.05657   22.20866    3.98508
H      3.86210   19.74977    4.81665
H      6.24561   21.99717    1.60787
H      8.46385   20.91486    1.87376
H      7.81859   19.86863    3.14943
H      9.06279   23.17187    2.38420
H      7.33177   23.51169    2.67507
H      8.54099   23.89020    3.94383
H     10.17535   21.46586    3.69567
H      9.53096   22.14430    5.23492
H      9.22621   20.43097    4.79590
H      5.17450   24.01325    2.64065
H      3.67529   24.57375    3.39259
C      4.28571   23.97065    5.86853
H      4.85947   24.07548    6.79764
H      3.58008   24.81612    5.79056
H      3.71120   23.03870    5.89654
C      5.92426   25.25678    4.70448
H      6.51574   25.35876    5.62115
H      6.59776   25.29695    3.84168
H      5.19927   26.08475    4.62767
H      5.65569   18.59024    6.07290
H      6.89578   19.17037    4.94296
C      4.98230   20.86580    7.15877
H      4.17834   21.15129    6.46670
H      5.25310   21.75302    7.75058
C      7.33925   20.31363    7.17043
H      7.11573   19.41997    7.77463
H      8.23633   20.12560    6.57256
H      7.52614   21.17181    7.82537
N      5.80988   19.98727    1.37085
H      5.72513   20.19686    0.38087
H      6.28457   19.09808    1.49734
N      4.63045   19.75012    7.93310
H      3.70595   19.36716    7.77524
H      4.84033   19.80442    8.92342
