23

O     12.13935    7.10077   12.85986
Fe    12.94044    7.33795   11.99565
N     14.48316    7.66469   10.30688
N     11.86099    8.31327   10.55618
O     14.37439    8.75288   12.77369
N     13.65814    5.47806   11.62330
C     13.96844    8.77796    9.50465
H     14.41620    9.73050    9.84610
H     14.27508    8.70419    8.44585
C     12.49380    8.91558    9.61981
C     15.72645    7.94490   10.99282
H     16.15244    6.99087   11.36091
C     15.47500    8.76246   12.24079
C     14.52988    6.39838    9.57866
H     13.74222    6.38196    8.80600
H     15.48926    6.26219    9.04872
C     14.24907    5.24809   10.50141
H     11.97969    9.57185    8.89607
H     16.32033    9.33394   12.68177
H     13.44321    4.66305   12.20644
H     10.84917    8.47539   10.59749
Br    17.09960    8.73993    9.89881
Br    14.72342    3.58106    9.91460
