22

O      0.66570   -1.06883   -2.94005
N      2.79878   -0.75498   -0.41972
H      3.21989   -0.62371   -1.34293
H      3.07628   -1.69324   -0.11662
Fe     0.64302   -0.32678   -0.07507
H      3.26331   -0.09277    0.20717
P      0.73902    1.94065   -0.46864
H      0.11300    2.36610   -1.67022
H      0.11277    2.79338    0.47848
P     -0.57679   -2.27618    0.16863
H     -1.47252   -2.55376   -0.89334
H      0.29031   -3.39916    0.11269
H     -1.35259   -2.58454    1.31673
P     -1.98622    0.47071   -0.94972
H     -2.37131    0.04025   -2.24560
H     -2.94231   -0.23275   -0.16537
H     -2.60801    1.75281   -0.92983
P      0.54529    0.06248    2.18035
H      0.88761   -1.02204    3.03705
H     -0.73058    0.38907    2.71724
Br     1.81603    1.64342    2.94728
Br     2.72490    2.80142   -0.62199
