54

O      7.37649   22.88521    6.78453
Fe     6.00876   22.13099    4.83895
P      5.81946   20.10228    5.91009
C      5.08870   18.80575    4.83659
C      4.06902   19.48179    3.94153
P      4.88717   20.97412    3.28932
C      3.63695   22.12301    2.65381
C      4.17567   23.52266    2.86512
N      4.82925   23.77236    4.17353
C      5.99268   20.43738    1.92222
C      7.42683   20.40029    2.41948
P      7.75607   21.97103    3.30495
C      9.36555   21.83328    4.10803
C      8.02848   23.17170    1.97338
H      3.70756   18.83683    3.12377
H      3.43528   21.94342    1.58534
H      2.70401   21.93272    3.19839
H      3.19170   19.82131    4.51634
H      5.87659   21.16884    1.10588
H      5.65369   19.46349    1.53294
H      8.14736   20.25059    1.59812
H      7.57671   19.58322    3.14279
H      8.83392   22.79690    1.32057
H      7.12174   23.32257    1.37209
H      8.34340   24.13368    2.40396
H     10.14436   21.59432    3.36629
H      9.58883   22.79830    4.58798
H      9.33903   21.06516    4.89046
H      4.94568   23.71561    2.10443
H      3.38161   24.27313    2.70645
C      3.87293   24.00010    5.27589
H      4.48291   24.30232    6.13535
H      3.22890   24.86107    5.01981
C      5.66172   24.99473    3.97205
H      6.37067   24.73978    3.17496
H      4.99201   25.77289    3.56010
H      4.65195   18.00029    5.44953
H      5.90534   18.36062    4.24559
C      4.80985   20.11940    7.40866
H      3.75778   20.32237    7.16725
H      4.88809   19.13578    7.89925
H      5.18481   20.89951    8.08423
C      7.43619   19.50040    6.42995
H      7.31459   18.56742    7.00372
H      8.06417   19.30350    5.55097
H      7.91057   20.27226    7.05300
C      6.40263   25.54226    5.16116
H      5.73395   25.93570    5.93956
H      7.07069   24.79303    5.60477
H      7.01171   26.39083    4.81303
C      3.05000   22.79275    5.65144
H      2.66243   22.90733    6.67409
H      2.18846   22.62735    4.99220
H      3.68464   21.88968    5.63308
