45

O     -0.38405   -3.39119    0.18471
Fe    -0.17570   -1.92487    2.31673
N      1.93345   -2.05401    2.79042
N      0.33587   -0.03887    1.50945
N     -2.21265   -1.59689    2.92635
O     -0.11033   -1.78034    4.49584
C      0.00705    0.03912    0.07839
C      1.79308    0.12627    1.70623
C      2.28141   -0.62634    2.92182
C      2.73784   -2.70957    1.75213
C     -0.39876    0.98501    2.28892
C     -1.90616    0.83562    2.33060
C     -2.44647   -0.18764    3.30277
C     -3.09634   -2.01334    1.82682
C      1.12325   -2.12567    5.10524
C      1.92882   -2.81787    4.03510
C     -1.32143   -2.15915    5.15170
C     -2.31865   -2.50482    4.06334
H     -2.91082   -3.06748    1.58819
H     -4.14903   -1.88175    2.12346
H     -2.88653   -1.41108    0.93601
H      0.28273    1.02968   -0.32153
H      0.54626   -0.74840   -0.46137
H     -1.06588   -0.12107   -0.07402
H      2.04240    1.19607    1.80630
H      2.30013   -0.22721    0.80014
H      2.58377   -2.21167    0.78961
H      3.80709   -2.67785    2.02061
H      2.41424   -3.75119    1.64917
H      1.80065   -0.22046    3.82022
H      3.37074   -0.49278    3.04156
H      2.94167   -3.09166    4.37887
H     -1.16096   -3.04933    5.77820
H     -1.67011   -1.33345    5.79222
H     -2.12997   -3.52097    3.68206
H     -1.98865   -0.01890    4.28577
H     -3.53323   -0.05292    3.43260
H     -2.30047    1.80806    2.66717
H     -2.32850    0.70634    1.32377
H      0.00078    0.97212    3.31515
H     -0.14165    1.96902    1.85658
H      1.62302   -1.21803    5.48464
H      0.97711   -2.80535    5.95787
Br     0.99182   -4.49573    3.67051
Br    -4.06952   -2.56588    4.87048
