23

O      0.24820    0.00874   -1.88788
O     -0.34171   -2.14590   -0.36927
O      0.07797    2.13762   -0.25050
P      2.34865   -0.04609   -0.02563
N     -2.20642    0.34520   -0.88736
O     -0.50235   -0.00774    1.78455
H     -0.29125   -2.72988    0.40104
H     -0.04963   -2.67424   -1.12796
H      0.21245    2.33993    0.69112
H      3.23322    0.03430   -1.13242
H      2.80862   -1.24193    0.58124
H     -2.62728    0.99954   -0.22161
H     -2.38483    0.75378   -1.81013
H     -1.32007   -0.07150    2.31196
Fe    -0.07179   -0.01166   -0.72942
H      2.88521    0.94139    0.82966
H     -2.77222   -0.50854   -0.85012
N      0.63723   -0.17022    2.58810
H      0.63611    0.57358    3.29585
H      0.55295   -1.05986    3.09300
N      1.30087    2.56617   -0.86762
H      1.15845    3.56836   -1.05404
H      1.24400    2.10899   -1.78554
