53

O      5.90417   23.12463    7.22376
Fe     6.36944   22.45791    5.49644
P      6.03198   20.30573    6.02441
C      5.79648   19.02226    4.74930
C      4.72933   19.19812    3.67235
C      4.22236   21.66961    3.63110
C      4.45608   23.07083    3.06874
P      5.08814   24.01447    4.49112
C      5.91746   20.66353    1.92462
C      7.30064   20.74645    2.54174
P      7.67413   22.09589    3.70535
C      9.28107   21.61503    4.40405
C      8.10692   23.50151    2.64203
H      4.82514   18.33401    2.99532
H      4.98385   21.63851    4.53433
H      3.74788   19.06423    4.15315
H      5.75360   21.52958    1.26415
H      5.94277   19.80385    1.23455
H      8.05011   20.85807    1.73882
H      7.56731   19.81880    3.06211
H      8.93933   23.21035    1.98159
H      7.25582   23.80659    2.01879
H      8.42598   24.35057    3.26400
H     10.01184   21.43810    3.59802
H      9.65905   22.41935    5.05460
H      9.16401   20.69910    4.99998
H      5.24720   23.05956    2.30871
H      3.55608   23.50554    2.60385
C      3.67966   24.31688    5.57671
H      4.04344   24.87600    6.45145
H      2.90717   24.90074    5.05082
H      3.26747   23.36159    5.92717
C      5.62662   25.65181    3.96395
H      6.03089   26.18479    4.83916
H      6.39672   25.59820    3.18567
H      4.75508   26.20844    3.58173
H      5.53627   18.12357    5.33766
H      6.78838   18.80359    4.33035
C      4.36555   20.36490    6.92343
H      3.67227   20.83512    6.20449
H      4.08505   19.29983    7.01472
C      7.15081   19.55394    7.22783
H      6.76361   18.56577    7.52604
H      8.16106   19.43616    6.81066
H      7.20486   20.21113    8.10592
C      4.69205   20.46297    2.80829
H      3.86674   20.29908    2.09085
N      4.35045   21.00921    8.16371
H      4.59150   22.00051    8.12038
H      4.82735   20.52809    8.92036
N      2.92617   21.51302    4.14591
H      2.28905   22.29144    4.02800
H      2.47337   20.62041    3.98474
