23

O      0.47831   -0.12890   -2.70887
O     -0.52170   -2.07818   -0.23040
O      0.08708    2.13902   -0.31843
P      1.99476   -0.26779    0.64583
N     -2.57486    0.38219   -0.14511
O     -0.64925    0.13074    1.73012
H     -0.44904   -2.37325    0.69366
H      0.25540    2.43204    0.59357
H      2.85088    0.68145    0.03672
H      2.50907   -1.49709    0.16531
H     -2.92758    1.27104    0.22309
H     -2.80601    0.39716   -1.14355
H      0.00201    0.06919    2.44469
H     -1.49736    0.26955    2.17863
Fe    -0.44123    0.06972    0.07591
H      2.51009   -0.26954    1.97035
H     -3.16778   -0.35197    0.25434
N      1.16517    2.69351   -1.07327
H      0.81768    3.60816   -1.39149
H      1.18033    2.09519   -1.90674
N      0.34449   -2.95293   -0.95283
H      0.52376   -2.42326   -1.81327
H     -0.25295   -3.74360   -1.22961
