30
./1009-y/FeO.out
C     10.75694    7.14505   15.24426
H     11.46937    7.37094   14.17370
O     12.17107    7.57928   13.15906
H     10.94070    6.07430   15.41192
H     11.22776    7.83851   15.95586
H      9.75414    7.41890   14.88591
Fe    13.27430    7.69206   11.91496
N     14.80981    7.72400   10.15195
O     12.23573    8.43221   10.26234
O     14.69585    8.96276   12.53155
O     13.80814    5.59464   11.42811
C     14.38157    8.89039    9.36475
H     14.89382    8.93612    8.38700
C     12.88340    8.64177    9.21501
C     16.06089    8.02905   10.81902
H     16.38902    7.18084   11.44368
H     16.87683    8.29582   10.12289
C     15.65840    9.16572   11.73797
C     14.63339    6.50347    9.38561
H     15.51812    6.26060    8.76658
C     14.33150    5.35848   10.35331
H     12.35794    8.95193    8.29084
H     14.54397    4.31233   10.04004
H     16.39512    9.95223   11.99221
N     13.46949    6.71992    8.53569
H     13.65363    6.59886    7.53760
H     12.63356    6.18861    8.78765
N     14.72663   10.05383   10.14805
H     15.25586   10.75842    9.63100
H     13.93878   10.49977   10.62405
