27
./1039-af/FeO.out
C      0.39038    0.00232   -4.66642
H      0.50495    0.11418   -3.27633
O      0.52710    0.22542   -2.16371
H     -0.24324    0.86618   -4.90938
H     -0.06471   -0.99225   -4.76865
H      1.45562    0.08378   -4.92591
O     -0.65472   -1.94986   -0.42060
O      0.12096    2.08015   -0.14433
P      2.41934   -0.24020    0.03099
O     -2.32633    0.21931   -0.62421
O     -0.46538    0.15716    1.65454
H     -1.66316   -1.88641   -0.57810
H     -0.31311   -2.62424   -1.02669
H      0.25553    2.24655    0.80649
H      3.13016   -1.16617   -0.77234
H      2.91303   -0.55255    1.32534
H     -2.84676    0.98405   -0.93157
H     -0.04628   -0.45798    2.27574
H     -1.39162    0.19864    1.93721
Fe    -0.00672    0.00660   -0.53565
H      3.10381    0.97023   -0.24615
N      1.09774    2.86107   -0.81448
H      0.64208    3.76360   -1.00304
H      1.18442    2.38356   -1.71881
N     -3.00457   -0.98019   -0.86183
H     -3.81781   -1.03213   -0.23549
H     -3.34672   -0.99697   -1.83045
