28
./1065-d/FeO.out
C     -3.66388    1.41291    4.15177
H     -3.04316    1.59303    2.91115
O     -2.62977    1.70402    1.87254
H     -3.30909    0.40323    4.40250
H     -3.19353    2.24593    4.69406
H     -4.73072    1.51883    3.91161
Fe    -2.67104    1.73591    0.14584
H     -4.08500    4.18984   -0.44646
N     -2.72273    2.03172   -2.03826
H     -2.31451    2.94532   -2.26314
N     -0.55513    1.79819    0.14965
H     -0.31215    2.43159    0.91844
N     -3.64405   -0.17272   -0.04834
H     -2.98360   -0.94440   -0.19105
H     -4.12739   -0.39214    0.82861
H     -0.13886    2.20652   -0.69230
H     -3.82294    4.00808    1.07470
H     -4.34474   -0.26872   -0.79029
H     -3.69665    2.12177   -2.34747
O     -3.66278    3.61031    0.20497
C      0.02819    0.47424    0.41368
H     -0.20960   -0.21192   -0.41276
H      1.12583    0.52977    0.50991
H     -0.38698    0.08106    1.35273
C     -2.06833    1.01260   -2.87704
H     -1.00103    0.94297   -2.62328
H     -2.53070    0.03010   -2.70457
H     -2.14954    1.24477   -3.95164
