30
./1195-s/FeO.out
C      0.37086    0.52590   -4.35076
H      0.69735    0.37447   -2.99858
O      0.88263    0.23860   -1.90011
H     -0.63417    0.96638   -4.30286
H      0.43799   -0.51362   -4.70040
H      1.18884    1.19647   -4.65036
O     -0.04827   -2.10902   -0.59110
O      0.18161    2.14516    0.05457
N      2.46495   -0.20284    0.33890
O     -1.81376    0.16107   -0.50218
H     -0.31740   -2.83269   -0.00687
H      0.29034   -2.52583   -1.39734
H      0.06644    2.69700    0.84183
H      0.57118    2.71978   -0.62147
H      2.47430   -0.35555    1.35094
H     -2.17920    1.02058   -0.75989
H     -2.27256   -0.48822   -1.05574
Fe     0.40425   -0.00304   -0.26083
N     -0.19742   -0.29032    1.85810
H     -1.22171   -0.24471    1.88274
H      0.04407   -1.18752    2.28998
H      0.12050    0.41143    2.53351
C      3.08354   -1.37545   -0.29302
H      4.13674   -1.47729    0.01947
H      2.53887   -2.28503   -0.00653
H      3.04733   -1.25291   -1.38427
C      3.21817    1.02843    0.06806
H      4.27028    0.91931    0.38171
H      3.18797    1.23483   -1.01056
H      2.77036    1.86855    0.61542
