51
./12093-ac/FeO.out
C     -0.56237   -5.37608   -0.54951
H     -0.32007   -4.31512    0.17813
O     -0.11884   -3.36719    0.84867
H     -0.34936   -6.19503    0.15132
H      0.15986   -5.25215   -1.36842
H     -1.61802   -5.24333   -0.82403
Fe    -0.21403   -2.21220    2.08644
N      1.88112   -2.10729    2.63390
N      0.25451   -0.38476    1.10127
N     -2.26120   -1.81469    2.57672
N     -0.21699   -3.22876    4.00344
C     -0.24866   -0.37192   -0.27906
C      1.72874   -0.28421    1.07488
C      2.34197   -0.74292    2.37232
C     -0.32532    0.71401    1.90240
C     -1.81960    0.64415    2.13506
C     -2.32182   -0.42545    3.08084
C     -3.13138   -2.01754    1.41048
C      0.91629   -2.72874    4.78226
C      2.19480   -2.62438    3.97111
C     -0.12714   -4.66895    3.72038
C     -1.49650   -2.90820    4.65254
C     -2.58256   -2.80684    3.60682
H     -0.04598   -5.23970    4.66050
H     -1.02354   -4.99105    3.17639
H      0.74920   -4.87479    3.09714
H     -2.99058   -3.03636    1.02770
H     -4.18545   -1.87068    1.69830
H     -2.87612   -1.30816    0.61811
H      0.05049    0.56155   -0.78563
H      0.15622   -1.23601   -0.82040
H     -1.34096   -0.43760   -0.28875
H      2.03538    0.74944    0.83869
H      2.08594   -0.92445    0.25360
H      2.03554   -0.10542    3.21543
H      3.44317   -0.69180    2.31139
H      2.87294   -1.92959    4.49009
H     -1.76963   -3.67858    5.39178
H     -1.40327   -1.96083    5.20069
H     -2.70320   -3.76732    3.08677
H     -1.74767   -0.38513    4.01905
H     -3.37077   -0.21480    3.35087
H     -2.09652    1.60432    2.60021
H     -2.37525    0.63736    1.18641
H      0.19203    0.72929    2.87482
H     -0.07781    1.66762    1.40078
H      0.66160   -1.70363    5.10003
H      1.07711   -3.32188    5.69881
H      2.28798   -2.73935    1.93873
Br    -4.27620   -2.50492    4.48020
Br     3.21702   -4.24873    3.83072
