27
./1210-e/FeO.out
C     -3.44235    2.03724    4.27659
H     -3.44891    1.58630    2.99300
O     -3.40038    1.28325    1.88771
H     -2.98843    1.17096    4.77937
H     -2.83233    2.94931    4.21820
H     -4.52188    2.17620    4.43312
Fe    -2.84910    1.52819    0.28084
O     -4.13227    3.19322    0.00117
H     -4.12287    3.94524   -0.61037
N     -2.00855    2.02499   -1.69280
H     -1.38443    2.83977   -1.69699
H     -1.45261    1.26962   -2.10737
O     -0.83787    1.16752    0.85101
H     -0.64907    0.93803    1.77405
H      0.01965    1.27741    0.41340
N     -3.87039   -0.20397   -0.33711
H     -4.52313   -0.32857    0.44318
H     -4.73525    3.43425    0.72203
H     -2.71843    2.23675   -2.40126
C     -2.95172   -1.34800   -0.34688
H     -2.19174   -1.21335   -1.13088
H     -2.46191   -1.43707    0.63331
H     -3.49938   -2.28341   -0.55633
C     -4.64141   -0.04112   -1.57221
H     -5.27487    0.85562   -1.50381
H     -3.96109    0.04324   -2.43131
H     -5.28968   -0.91863   -1.74128
