57
./13134-ai/FeO.out
C      6.74122   23.93909    8.39420
H      7.07147   23.45262    6.98142
O      7.35802   23.16604    5.98940
H      7.15902   23.13774    9.01620
H      7.33495   24.86086    8.34222
H      5.65243   24.06777    8.43926
Fe     6.30909   22.20957    4.95042
N      6.02647   20.46538    6.15416
C      5.78316   19.27571    5.30964
C      4.70066   19.51097    4.27256
P      5.09988   21.10276    3.49172
C      3.67812   22.12626    3.07188
C      4.15893   23.56777    3.20348
N      4.96266   23.74098    4.48916
C      6.15901   20.82436    2.04219
C      7.56502   20.66772    2.58651
N      7.89400   21.70425    3.58623
C      9.15476   21.37468    4.25879
C      8.01865   23.01634    2.94422
H      4.66899   18.69262    3.53585
H      3.29845   21.93553    2.05587
H      2.86496   21.90654    3.78221
H      3.69910   19.58256    4.72428
H      6.06419   21.69742    1.37752
H      5.84523   19.93857    1.46680
H      8.30749   20.69317    1.76863
H      7.67224   19.69024    3.07688
H      8.78691   22.99185    2.15093
H      7.06048   23.30225    2.49077
H      8.30230   23.75732    3.70236
H      9.99339   21.41426    3.54253
H      9.32476   22.09276    5.07096
H      9.09994   20.35822    4.66676
H      4.91163   23.74830    2.41513
C      4.03978   23.71228    5.71894
H      4.70259   23.42480    6.54478
H      3.34683   22.88049    5.52633
C      5.64293   25.03777    4.42834
H      6.21432   25.19655    5.35000
H      6.33494   25.05827    3.57926
H      4.90142   25.84021    4.30194
H      5.52369   18.41628    5.95395
H      6.73400   19.02878    4.81827
C      4.86011   20.72799    7.00604
H      3.98411   20.97371    6.39550
H      4.62866   19.84070    7.62115
H      5.08003   21.56748    7.67607
C      7.19488   20.21933    7.01267
H      7.00269   19.36114    7.67896
H      8.07150   20.00109    6.39512
H      7.40146   21.11240    7.61091
N      3.34514   24.86679    6.06852
H      3.89825   25.60047    6.49862
H      2.74496   25.22999    5.33442
N      3.10099   24.50221    3.10969
H      3.21779   25.22361    2.40572
H      2.17312   24.09648    3.04647
