40
./1320-ad/FeO.out
C      8.50576   23.40414    8.42885
H      7.77785   22.90324    7.46899
O      7.12035   22.45268    6.58262
H      9.20101   22.57753    8.63285
H      8.94009   24.29204    7.94831
H      7.74402   23.59539    9.19811
Fe     6.21379   21.97599    5.24911
N      5.53737   20.11526    5.82668
C      5.61689   19.10249    4.73718
C      4.53146   19.31942    3.67741
C      4.10332   21.85463    3.51279
C      4.71051   23.23017    3.23011
N      5.34932   23.71317    4.46918
C      5.96543   20.68996    2.03322
C      7.26392   21.13500    2.56345
N      7.50362   21.63579    3.72521
H      4.69561   18.48583    2.97374
H      3.02095   21.89012    3.31903
H      4.10308   21.70659    4.61569
H      5.82680   21.31608    1.12614
H      6.16469   19.70313    1.56971
H      5.48209   23.19103    2.44928
H      3.94874   23.94652    2.88259
H      6.60062   19.24824    4.26310
C      4.65301   20.59294    2.81237
H      3.93564   20.40269    1.99756
H      6.15427   19.82981    6.59525
H      4.59465   20.08956    6.23045
H      8.48545   21.88903    3.87522
H      6.01862   24.47030    4.29783
H      4.64862   24.10857    5.10558
H      8.10478   21.03757    1.85219
C      3.12078   19.15719    4.22379
H      2.37876   19.28943    3.42198
H      2.96611   18.15309    4.64085
H      2.86707   19.88676    5.01047
C      5.59753   17.70810    5.33680
H      5.64923   16.95081    4.54023
H      6.46580   17.55467    5.99734
H      4.68311   17.52657    5.92076
