28
./1414-ah/FeO.out
C      0.15823    0.76729   -4.32661
H      0.35232    0.12245   -3.10651
O      0.43304   -0.33700   -2.08896
H     -0.86758    0.47636   -4.58951
H      0.95861    0.29646   -4.91474
H      0.31097    1.81193   -4.02271
O     -0.50578   -1.91526    0.16246
O      1.19284    1.85551   -0.47952
P      2.49720   -0.80965   -0.08188
P     -2.35114    0.10054   -1.03285
O     -0.29685    0.56579    1.70664
H     -0.83576   -2.04300    1.06427
H     -1.27617   -2.11940   -0.44812
H      1.29491    2.44616    0.28129
H      2.11878    1.60334   -0.77952
H      2.87524   -2.14086   -0.42032
H     -2.91610    1.00075   -1.98566
H      0.29870    0.47055    2.46436
H     -1.03772    1.09926    2.03004
Fe     0.14225    0.03027   -0.40894
H      3.24481   -0.62257    1.11100
H     -3.41638    0.04506   -0.09538
N      3.28715    0.30360   -1.12501
H      3.05801    0.11506   -2.10427
H      4.30452    0.36362   -1.02611
N     -2.40937   -1.49446   -1.66065
H     -3.33860   -1.86788   -1.87168
H     -1.79568   -1.60895   -2.47114
