30
./1455-s/FeO.out
C      0.18190   -0.46302   -4.37216
H      0.53258   -0.47433   -3.01666
O      0.74824   -0.44964   -1.91514
H      0.93534    0.23817   -4.75769
H     -0.85694   -0.10737   -4.34872
H      0.33429   -1.52472   -4.61233
O     -0.50717   -2.13274   -0.03027
O      0.60099    2.00391   -0.48809
N      2.39984   -0.63006    0.30839
O     -1.78317    0.40197   -0.44894
H     -0.81154   -2.64758    0.73113
H     -0.32473   -2.77373   -0.73357
H      0.60978    2.74439    0.13569
H      1.04128    2.32259   -1.29008
H     -2.01516    1.20857   -0.93280
H     -2.40385   -0.27243   -0.76295
Fe     0.37574   -0.15201   -0.25783
H      2.46350   -0.52732    1.32473
N     -0.08587    0.20325    1.88760
H     -1.07503    0.46956    1.93675
H      0.01119   -0.59497    2.52251
H      0.42180    0.96213    2.35249
C      2.72468   -2.02449   -0.01850
H      3.75972   -2.26419    0.27891
H      2.03853   -2.70128    0.50796
H      2.62372   -2.16925   -1.10287
C      3.35220    0.31182   -0.29372
H      4.38583    0.06490    0.00269
H      3.27175    0.24962   -1.38766
H      3.12387    1.33473    0.03429
