30
./1470-s/FeO.out
C      0.33769    0.36777   -4.29113
H      0.69962    0.09425   -2.96578
O      0.89195   -0.09671   -1.88114
H     -0.69510    0.72549   -4.18450
H      0.47179   -0.62834   -4.73567
H      1.09843    1.12092   -4.54034
O     -0.19888   -2.23391   -0.36721
O      0.40586    2.04157   -0.11206
N      2.36728   -0.66937    0.32515
O     -1.82544    0.22787   -0.59155
H     -0.71443   -2.82962    0.19524
H      0.02037   -2.73467   -1.16706
H      0.45507    2.64814    0.64137
H      0.85676    2.49165   -0.84228
H      2.61793   -1.21161   -0.50655
H     -2.09100    1.11746   -0.86921
H     -2.34092   -0.37451   -1.14794
Fe     0.35762   -0.13459   -0.23534
N     -0.31466   -0.10598    1.86184
H     -1.30201    0.16819    1.88314
H     -0.27310   -1.01012    2.33970
H      0.16772    0.53735    2.49548
C      2.52561   -1.52823    1.49858
H      3.56305   -1.89676    1.57739
H      2.30332   -0.96053    2.41282
H      1.85125   -2.39209    1.42078
C      3.23800    0.50990    0.35131
H      4.29056    0.21741    0.50857
H      3.15881    1.04335   -0.60567
H      2.94070    1.17519    1.17508
