41
./1515-t/FeO.out
C     -2.06053    2.94880    3.98695
H     -2.26054    2.53065    2.68748
O     -2.41486    2.24100    1.60220
H     -1.58792    2.05441    4.41664
H     -1.41737    3.82810    3.84596
H     -3.09916    3.14360    4.28876
Fe    -2.25195    2.28747   -0.10968
N     -3.62109    3.87041   -0.40993
O     -1.71721    2.01984   -2.23536
O     -0.17525    1.93867    0.03426
O     -3.35689    0.57322   -0.25070
C     -4.91277    3.44703    0.15384
H     -5.63838    4.27605    0.09320
H     -5.30173    2.59133   -0.41428
H     -4.77533    3.15847    1.20350
C     -3.06404    5.01677    0.35016
H     -3.63691    5.92075    0.07844
H     -3.25429    4.81388    1.41309
C     -3.78261    4.20208   -1.83014
H     -4.17659    3.33027   -2.37180
H     -4.50776    5.02647   -1.94359
H     -2.82674    4.52615   -2.26142
H     -1.10829    1.32023   -2.51206
H     -2.12828    2.35047   -3.04569
H      0.05379    1.67019    0.93720
H     -3.61217    0.24553    0.62675
C     -3.53371   -0.48080   -1.23596
H     -3.51603    0.03269   -2.20782
H     -2.65898   -1.15302   -1.17652
C      0.97044    2.54290   -0.58903
H      1.34579    3.38409    0.01599
H      1.76190    1.78665   -0.71933
H      0.64801    2.91445   -1.56963
C     -1.58662    5.21071    0.11520
H     -1.23639    6.09092    0.67646
H     -1.00317    4.35447    0.49767
H     -1.33112    5.38270   -0.94078
C     -4.82303   -1.21485   -1.00929
H     -4.83512   -1.72472   -0.03117
H     -5.69320   -0.54400   -1.08157
H     -4.93074   -1.99630   -1.77903
