31
./1590-c/FeO.out
C      0.31220   -0.16505   -4.34240
H      0.38252   -0.02498   -2.94807
O      0.40430    0.04548   -1.83160
H      0.18519    0.88652   -4.63502
H     -0.56382   -0.81751   -4.45888
H      1.29347   -0.61616   -4.54488
N     -0.38428   -2.23755   -0.06893
O      0.69742    2.01484    0.19074
N      2.15253   -0.52584    0.39626
N     -1.96120    0.55219   -0.08630
O     -0.14915   -0.02582    2.19136
H      0.06518   -2.75409    0.69256
H     -0.03758   -2.66040   -0.93542
H      0.32121    2.69956    0.76243
H      0.94654    2.46948   -0.62840
H      2.59328    0.39739    0.45093
H     -2.59731   -0.25003   -0.11139
H     -0.70685   -0.56540    2.77051
H      0.35872    0.52958    2.80067
Fe     0.10602   -0.10558   -0.14731
H      2.19228   -0.89147    1.35151
H     -2.12227    0.97430    0.83271
H     -1.37473   -2.49459   -0.02492
C      2.93319   -1.38349   -0.50359
H      3.98439   -1.46345   -0.18080
H      2.50407   -2.39557   -0.52321
H      2.89694   -0.96771   -1.51938
C     -2.35723    1.49534   -1.14272
H     -1.70414    2.37734   -1.10490
H     -2.23240    1.01617   -2.12287
H     -3.40380    1.82214   -1.02913
