24
./1623-b/FeO.out
C      0.77145   -0.08598   -4.43731
H      0.40782    0.15185   -3.16018
O      0.11435    0.31216   -2.05422
H      1.60680   -0.78900   -4.31500
H     -0.16128   -0.49943   -4.84647
H      1.03201    0.93183   -4.76119
O     -0.59214   -2.06078   -0.53345
O      0.43815    2.00464    0.17544
N      2.17996   -0.33401   -0.23061
N     -2.12264    0.51532   -0.23496
O     -0.06190   -0.46468    1.76242
H     -0.34202   -2.69366    0.15686
H     -0.48629   -2.52761   -1.37637
H      0.79790    2.32320    1.01587
H      0.58955    2.70057   -0.48161
H     -2.34909    1.18918    0.50196
H     -2.42158    0.94617   -1.11543
H      0.75732   -0.51253    2.28229
H     -0.78963   -0.51647    2.39852
Fe    -0.04458   -0.00724   -0.38352
H      2.56492    0.31485   -0.93235
H     -2.73212   -0.29693   -0.09792
Br     3.08720    0.18232    1.36323
Br     2.71734   -2.02990   -0.88188
