57
./16689-ai/FeO.out
C      6.91464   23.88396    8.37603
H      7.16968   23.39841    6.99780
O      7.41676   23.11372    5.97156
H      7.89440   23.65746    8.81675
H      6.71845   24.94723    8.18607
H      6.07013   23.30585    8.77232
Fe     6.37703   22.12752    4.96135
N      5.99172   20.45437    6.14546
C      5.80751   19.17147    5.31196
C      4.78138   19.43132    4.20915
P      5.14234   21.05896    3.50364
C      3.67142   22.10291    3.09991
C      4.23364   23.52086    3.22694
N      5.00466   23.74067    4.46402
C      6.16801   20.84564    2.02163
C      7.57566   20.64856    2.54616
N      7.93126   21.65539    3.56947
C      9.16121   21.25815    4.26270
C      8.12538   22.97177    2.95290
H      4.83089   18.63760    3.44893
H      2.95698   21.90752    3.91646
H      3.75578   19.43533    4.61229
H      6.08113   21.74970    1.39977
H      5.82968   19.99505    1.40999
H      8.31525   20.67782    1.72590
H      7.66381   19.65779    3.01460
H      8.95027   22.93839    2.21934
H      7.20929   23.27996    2.43405
H      8.36910   23.69900    3.73796
H     10.00789   21.22669    3.55543
H      9.36997   21.98120    5.06130
H      9.03300   20.25756    4.69402
H      4.90776   23.71118    2.37682
H      3.41331   24.25767    3.15869
C      4.10639   23.80292    5.62501
H      4.70379   23.94432    6.53370
H      3.40824   24.65210    5.52376
H      3.52531   22.87988    5.71418
C      5.72561   25.02135    4.36837
H      6.34518   25.15190    5.26290
H      6.37213   25.02495    3.48473
H      5.00367   25.85112    4.28280
H      6.79962   19.04258    4.85205
C      4.76837   20.72123    6.90643
H      3.92446   20.89316    6.22705
H      4.53997   19.85676    7.55167
H      4.91406   21.60670    7.53491
C      7.09446   20.23307    7.09272
H      6.86796   19.35314    7.71576
H      8.02878   20.06345    6.54618
H      7.21502   21.11614    7.72823
N      5.49789   18.06848    6.11716
H      4.55214   17.70882    6.06835
H      6.18791   17.32973    6.17648
N      3.08543   21.73918    1.86481
H      2.07207   21.80977    1.83820
H      3.49009   22.19647    1.05268
