28
./1679-b/FeO.out
C      0.13224   -0.20538   -4.52385
H      0.41161   -0.19287   -3.19641
O      0.57068   -0.17958   -2.06265
H     -0.60759   -1.01487   -4.59265
H     -0.24189    0.81549   -4.68314
H      1.12888   -0.42502   -4.93230
O      0.02232   -2.14070    0.07467
O      0.62864    1.93056    0.00326
N      2.18923   -0.37694    0.23583
N     -2.06545    0.24979   -0.55531
O     -0.15849   -0.00446    1.83053
H     -0.33727   -2.77537   -0.56443
H      1.00797   -2.33918    0.11910
H      0.46464    2.62037   -0.65848
H      1.62982    1.83638    0.04545
H     -2.36039    1.12552   -0.11112
H     -2.41902    0.29041   -1.51641
H     -0.54066   -0.72496    2.35311
H     -0.31241    0.81122    2.32977
Fe     0.06433   -0.07368   -0.42446
H      2.04999   -0.33861    1.25140
H     -2.60707   -0.48490   -0.08829
N      2.61102   -1.67435   -0.09732
H      3.50536   -1.92577    0.34132
H      2.71464   -1.72799   -1.11412
N      2.96809    0.72972   -0.13936
H      3.89912    0.72543    0.29496
H      3.07755    0.71641   -1.15690
