32
./1680-y/FeO.out
C     10.48057    7.25708   15.12685
H     11.39220    7.19129   14.19425
O     12.25089    7.15932   13.28490
H     10.90468    8.02445   15.79010
H      9.59198    7.54685   14.54819
H     10.50630    6.22200   15.49771
Fe    13.27466    7.43291   11.99484
N     14.69354    7.74859   10.19855
O     12.10874    8.48744   10.56336
O     14.79329    8.62142   12.73839
O     13.84048    5.53243   11.44845
C     14.18005    8.89914    9.46208
H     14.63312    9.83893    9.83429
H     14.42552    8.87880    8.38263
C     12.70772    9.06999    9.66633
C     16.00182    7.98629   10.80158
H     16.49431    7.02110   11.02107
H     16.69555    8.52755   10.13279
C     15.87931    8.67431   12.14195
C     14.62930    6.50426    9.43662
H     13.78492    6.54076    8.72380
H     15.52952    6.32661    8.82039
C     14.33378    5.32269   10.32968
H     12.15494    9.76929    9.00058
C     17.04628    9.36108   12.71185
H     16.93962    9.49676   13.79709
H     17.98643    8.84756   12.45167
H     17.10728   10.36316   12.24084
C     14.61113    3.96301    9.84801
H     14.44826    3.87575    8.76129
H     15.69007    3.76542   10.01133
H     14.03596    3.21487   10.41114
