35
./1710-w/FeO.out
C     11.09582    7.38874   15.35158
H     11.40283    7.43012   14.07415
O     11.79520    7.45946   12.96363
H     12.05996    7.17626   15.83313
H     10.69347    8.40171   15.49522
H     10.36119    6.57066   15.35015
Fe    13.04655    7.53580   11.83046
N     14.61457    7.83968   10.27014
N     12.05562    8.40197   10.29683
F     14.74462    8.21409   12.99179
N     13.52419    5.58829   11.36318
C     14.19761    8.99219    9.44071
H     14.65478    8.91279    8.43702
C     12.69064    8.94366    9.31190
C     15.92061    7.91829   10.95177
H     16.22518    6.88082   11.15555
H     16.70128    8.35375   10.30172
C     15.88458    8.65750   12.26681
C     14.56004    6.61109    9.46440
H     13.80871    6.71888    8.65959
H     15.51436    6.41505    8.94142
C     14.13130    5.42196   10.24930
H     14.31351    4.42049    9.82209
H     16.76861    8.41059   12.87547
H     13.21002    4.73924   11.84412
H     11.03313    8.44038   10.25180
H     15.78973    9.74661   12.18615
C     12.04364    9.53965    8.12895
H     12.50883   10.50124    7.86049
H     12.21885    8.87126    7.26474
H     10.96047    9.67198    8.25837
C     14.55228   10.35665   10.01001
H     15.64071   10.49264   10.06654
H     14.17466   11.14072    9.33893
H     14.09286   10.51615   10.99636
