30
./1730-aq/FeO.out
C     -0.14279   -0.28073   -4.58421
H      0.16522   -0.08443   -3.20795
O      0.32040    0.02154   -2.11738
H      0.87821   -0.44972   -4.95413
H     -0.60119    0.68842   -4.82377
H     -0.81070   -1.15167   -4.54986
O     -0.21910   -2.24649   -0.30634
P      2.42920   -0.31682   -0.04017
O     -2.14688    0.22587   -0.44253
O     -0.45147   -0.18563    1.72357
H     -0.84198   -2.76133    0.22696
H      0.00663   -2.80000   -1.06830
H      2.96718   -1.55811   -0.46912
H      3.05221   -0.19336    1.22910
H     -2.70157   -0.03130    0.30818
H     -0.80246    0.60399    2.15911
Fe    -0.06241   -0.08621   -0.43237
H      3.21793    0.57662   -0.80686
P      0.23596    2.43508   -0.32269
H     -0.64776    3.10940   -1.20373
H      0.08315    3.23216    0.84435
H      1.47892    2.92417   -0.79853
C      0.24880   -0.96902    2.69940
H     -0.44548   -1.31402    3.48360
H      0.66360   -1.84035    2.17545
H      1.06937   -0.39260    3.15827
C     -2.95927    0.58273   -1.56806
H     -2.27370    0.92208   -2.35453
H     -3.52907   -0.29044   -1.92753
H     -3.64898    1.39918   -1.29855
