25
./1763-ar/FeO.out
C     -0.16359    0.03474   -4.63885
H      0.17746   -0.16046   -3.31294
O      0.39438   -0.27292   -2.20925
H     -0.84247    0.89514   -4.57525
H     -0.62070   -0.93904   -4.86168
H      0.83604    0.21797   -5.05736
P      2.37068   -0.67055    0.06566
O     -2.04227    0.50192   -0.69489
O     -0.47142    0.45052    1.56408
H      3.41732    0.14086   -0.44507
H      2.77669   -1.93683   -0.42941
H     -2.57889    0.73062    0.08728
H      0.02769    1.00538    2.19117
Fe     0.02777   -0.01256   -0.55722
H      2.76221   -0.78387    1.42606
P      0.69805    2.41666   -0.65872
H      0.83468    3.31226    0.43577
H      1.92101    2.64820   -1.33824
H     -0.19435    3.15337   -1.48028
P     -0.57016   -2.42197   -0.08764
H     -0.03346   -3.27633   -1.08476
H     -0.14181   -3.08907    1.08871
H     -1.93679   -2.79982   -0.12982
Br    -1.67926   -0.50492    2.61409
Br    -3.23011   -0.17938   -1.94304
