31
./1834-x/FeO.out
C     10.84582    7.16072   15.14393
H     11.29105    7.31802   13.98723
O     11.83368    7.46174   12.84939
H     11.21863    6.16456   15.42084
H     11.28859    8.00199   15.69577
H      9.76117    7.22687   14.97389
Fe    13.09798    7.51698   11.76436
N     14.69993    7.72279   10.14098
N     12.12522    8.48324   10.26060
O     14.63594    8.69656   12.67203
O     13.82819    5.65210   11.59464
C     14.27779    8.81099    9.26437
H     14.74318    9.76540    9.57427
H     14.60991    8.66524    8.21862
C     12.80635    9.02576    9.32254
C     15.95893    7.97927   10.82365
H     16.46454    7.02813   11.08469
H     16.69583    8.53827   10.21714
C     15.73822    8.66136   12.14122
C     14.65225    6.39642    9.44854
H     13.68734    6.38710    8.90866
C     14.46292    5.34783   10.55290
H     12.33978    9.67925    8.56500
H     16.61339    9.11692   12.65581
H     11.12099    8.68989   10.28331
N     14.93361    4.14618   10.31610
H     15.40757    3.98408    9.42710
H     14.77370    3.37919   10.96788
N     15.66616    6.05546    8.54085
H     15.56133    6.39154    7.58864
H     16.62487    6.13794    8.86722
