30
./1834-y/FeO.out
C     10.38307    7.00929   14.92068
H     11.43830    7.26917   14.19650
O     12.42552    7.50631   13.46545
H     10.59878    7.63223   15.80106
H      9.56787    7.35285   14.26840
H     10.47598    5.92254   15.05809
Fe    13.43134    7.64879   12.13935
N     14.78021    7.79016   10.31187
O     12.26206    8.67844   10.66697
O     14.93669    8.80020   12.77553
O     13.95357    5.62588   11.65210
C     14.33700    8.93889    9.53210
H     14.84912    9.86583    9.85732
H     14.58312    8.85112    8.45646
C     12.87944    9.19859    9.74412
C     16.11692    7.96686   10.87154
H     16.50365    6.98778   11.20433
H     16.83851    8.35649   10.13483
C     16.01140    8.81787   12.11891
C     14.66806    6.51849    9.53350
H     13.70903    6.58573    8.97915
C     14.37405    5.40625   10.52429
H     12.35605    9.90336    9.06066
H     14.52449    4.35801   10.18093
N     17.04997    9.52065   12.51953
H     17.92177    9.54924   11.99809
H     17.00364   10.02998   13.40256
N     15.72248    6.29598    8.63258
H     15.46218    6.13580    7.66463
H     16.44685    5.64627    8.92452
