53
./18788-ai/FeO.out
C      6.98247   23.83612    8.40777
H      7.17762   23.39008    7.00793
O      7.40437   23.14475    5.96486
H      7.93430   23.49197    8.83342
H      6.89942   24.91868    8.24501
H      6.08064   23.33762    8.78663
Fe     6.37234   22.17640    4.94098
N      6.05874   20.44064    6.14922
C      5.85838   19.25090    5.29156
C      4.76921   19.46608    4.25887
P      5.11185   21.07830    3.49386
C      3.68021   22.12664    3.15207
C      4.24284   23.53146    3.25342
N      4.96210   23.77333    4.52187
C      6.14363   20.85818    2.01699
C      7.55493   20.68368    2.53946
N      7.90428   21.69740    3.56116
C      9.14430   21.31085    4.24620
C      8.08105   23.01690    2.94106
H      4.76741   18.65850    3.50973
H      3.25047   21.95040    2.15377
H      2.88867   21.94069    3.89376
H      3.76883   19.48168    4.72107
H      6.03726   21.75251    1.38310
H      5.82317   19.99215    1.41524
H      8.29004   20.72657    1.71632
H      7.66343   19.69485    3.00600
H      8.88919   22.98415    2.18947
H      7.15389   23.32228    2.43995
H      8.34111   23.74537    3.71971
H      9.98183   21.28127    3.52849
H      9.35901   22.03974    5.03753
H      9.02663   20.31168    4.68263
H      4.97631   23.69876    2.45050
C      4.05919   23.81498    5.68172
H      4.66305   23.88455    6.59382
H      3.40467   24.69874    5.61627
H      3.42509   22.92362    5.71610
C      5.68569   25.05693    4.44910
H      6.29933   25.17044    5.34885
H      6.33247   25.07329    3.56561
H      4.95979   25.88172    4.37179
H      5.60903   18.38944    5.93552
H      6.82360   19.03560    4.81509
C      4.83927   20.81375    6.84947
H      4.07785   21.09833    6.11442
H      5.05889   21.66171    7.50771
C      7.15894   20.19919    7.09581
H      6.90822   19.34654    7.74711
H      8.07624   19.97657    6.54183
H      7.31790   21.09397    7.70605
Br     4.06293   19.42653    7.92825
Br     2.84227   24.81239    2.90939
