57
./18884-ai/FeO.out
C      6.97755   23.74985    8.45877
H      7.18237   23.32871    7.03772
O      7.40484   23.10276    5.99888
H      6.99626   24.83910    8.32435
H      6.02212   23.32709    8.79457
H      7.87925   23.31294    8.90715
Fe     6.34376   22.15589    4.97079
N      5.99654   20.42554    6.09056
C      5.73566   19.25235    5.22408
C      4.66367   19.53216    4.18623
P      5.07764   21.14925    3.48734
C      3.68586   22.23254    3.09390
C      4.26325   23.62536    3.25793
N      5.00649   23.78808    4.53124
C      6.11545   20.86309    1.96546
C      7.53003   20.68750    2.50690
N      7.88644   21.67123    3.53963
C      9.13015   21.27225    4.20882
C      8.05862   23.00328    2.95036
H      4.63745   18.77151    3.38943
H      3.31701   22.06012    2.06940
H      2.85113   22.03003    3.78227
H      3.65393   19.57483    4.62255
H      6.04190   21.81273    1.40999
H      8.25967   20.73052    1.67798
H      7.61426   19.68630    2.95522
H      8.85086   22.99011    2.18085
H      7.12158   23.32974    2.48227
H      8.33819   23.70870    3.74356
H      9.97226   21.28921    3.49567
H      9.32823   21.96538    5.03612
H      9.02706   20.25157    4.59665
H      4.97277   23.83423    2.44323
H      3.47312   24.39481    3.19415
C      4.08000   23.78732    5.66996
H      4.65253   23.89017    6.60000
H      3.37478   24.63317    5.59263
H      3.50503   22.85553    5.69537
C      5.71974   25.07547    4.50984
H      6.30895   25.17709    5.42798
H      6.39537   25.11649    3.64875
H      4.99462   25.90322    4.43182
H      5.44663   18.40897    5.87491
H      6.68604   18.98582    4.74253
C      4.78235   20.68523    6.96372
H      3.97713   20.97290    6.27408
H      5.05688   21.57146    7.55524
C      7.13826   20.12829    6.96826
H      6.91320   19.23718    7.57566
H      8.03207   19.93427    6.36738
H      7.33158   20.98762    7.61983
N      4.43009   19.56988    7.73838
H      3.50410   19.18948    7.58306
H      4.64283   19.62327    8.72815
N      5.60542   19.80305    1.17569
H      5.52546   20.01000    0.18473
H      6.07686   18.91278    1.30671
