57
./18969-ai/FeO.out
C      6.71513   23.65318    8.49000
H      7.03477   23.24374    7.07189
O      7.34463   23.01975    6.06153
H      7.61906   23.26186    8.97455
H      6.68192   24.74228    8.35845
H      5.76927   23.17522    8.77477
Fe     6.34117   22.09290    4.96282
N      5.98067   20.36701    6.05086
C      5.64930   19.14502    5.20587
C      4.63016   19.50675    4.12878
P      5.12711   21.09708    3.42480
C      3.75975   22.19985    2.99018
C      4.33760   23.58766    3.18274
N      5.01516   23.74010    4.49135
C      6.22673   20.82764    2.00237
C      7.61944   20.65479    2.57534
N      7.93930   21.67907    3.58941
C      9.19591   21.34083    4.26673
C      8.07231   23.00214    2.97335
H      4.57493   18.71073    3.37024
H      3.41177   22.04574    1.95600
H      2.90993   21.99789    3.65991
H      3.62322   19.62312    4.56215
H      6.15367   21.70877    1.34571
H      5.92168   19.95223    1.40684
H      8.37858   20.67671    1.77253
H      7.70585   19.67376    3.06419
H      8.86042   22.99595    2.19940
H      7.12577   23.29499    2.50283
H      8.33750   23.72967    3.75094
H     10.03980   21.39443    3.55758
H      9.35826   22.04489    5.09255
H      9.14096   20.31833    4.65872
H      5.08382   23.79514    2.40137
H      3.55346   24.35939    3.08319
C      4.02360   23.73479    5.57525
H      4.53463   23.90143    6.53116
H      3.28889   24.54497    5.42491
H      3.49111   22.77813    5.60795
C      5.72429   25.02996    4.51663
H      6.28197   25.11701    5.45574
H      6.42702   25.08980    3.67897
H      4.99928   25.85691    4.43023
H      6.60881   18.92117    4.71016
C      4.79729   20.75327    6.94840
H      3.91841   20.69599    6.28845
H      4.97110   21.80763    7.19419
C      7.13975   20.05139    6.88904
H      6.93009   19.16168    7.50142
H      8.01120   19.85410    6.25613
H      7.36827   20.90217    7.54038
N      4.59077   20.03507    8.12463
H      4.50840   19.03216    7.98721
H      5.21972   20.25670    8.88925
N      5.22452   18.04874    5.99664
H      4.29516   17.70224    5.78173
H      5.87898   17.27512    6.05127
