24
./1903-b/FeO.out
C      0.77053   -0.10663   -4.51298
H      0.34109   -0.04916   -3.21487
O      0.03603   -0.00966   -2.11295
H      1.12581   -1.14386   -4.58852
H     -0.17443    0.12252   -5.02641
H      1.53921    0.67855   -4.53223
O     -0.52015   -2.06604   -0.21135
O      0.60187    2.03316   -0.18413
N      2.17402   -0.52921   -0.15355
N     -2.07800    0.49303   -0.31443
O     -0.03248    0.00394    1.77824
H     -0.32398   -2.60255    0.57141
H     -0.51458   -2.66919   -0.97026
H      0.37468    2.54051    0.60993
H      0.54585    2.65049   -0.92968
H      2.54227   -0.91072   -1.03387
H     -2.36037    0.85387   -1.23446
H      0.64683   -0.33246    2.38246
H     -0.77383    0.30947    2.32305
Fe     0.05011   -0.01823   -0.40303
H      2.72514    0.31908    0.03313
H     -2.64204   -0.35294   -0.15995
Br    -2.68103    1.75645    0.94520
Br     2.67148   -1.76789    1.17906
