44
./1970-i/FeO.out
C      0.26399    0.18603    5.70094
H      0.45437    0.03200    4.45833
O      0.59719   -0.09487    3.23444
H      0.90221   -0.60128    6.12712
H      0.60788    1.21509    5.87691
H     -0.81746    0.02434    5.81199
N      0.33421   -1.90951    0.83458
C      1.24381   -1.76743   -0.30234
H      0.72606   -1.20250   -1.09201
H      1.50257   -2.74844   -0.73626
C     -1.00769   -2.43341    0.55331
H     -1.43249   -2.77947    1.50831
H     -0.97100   -3.29559   -0.13489
C      2.50936   -1.05681    0.16285
H      3.15977   -0.90690   -0.71785
C     -1.88042   -1.34606   -0.01738
H     -2.92907   -1.68287   -0.07547
H     -1.55839   -1.04056   -1.02919
C      1.85673    1.23802   -0.41423
H      2.80710    1.56852   -0.86925
H      1.29919    0.70718   -1.19996
C     -2.38082    0.98706    0.46159
H     -2.77482    1.46730    1.37263
H     -3.23017    0.78784   -0.21025
C     -1.32300    1.83058   -0.20589
H     -0.96286    1.33039   -1.11867
H     -1.73014    2.80998   -0.51342
C      1.06094    2.43450    0.06043
H      1.63431    3.02889    0.78505
H      0.84616    3.10175   -0.79096
N     -0.18193    1.98598    0.71084
Fe     0.22050    0.05519    1.60537
N      2.12535    0.29172    0.68657
O     -1.77664   -0.24107    0.88292
H     -0.44034    2.65468    1.44123
H      0.77778   -2.48924    1.54938
C      3.25737   -1.89463    1.18040
H      3.38339   -2.91202    0.78097
H      4.26366   -1.50286    1.37727
H      2.72795   -1.95821    2.14423
C      3.09847    0.86060    1.62772
H      4.07702    0.99482    1.13702
H      2.74181    1.83599    1.97921
H      3.19984    0.21485    2.50434
