27
./1979-bc/FeO.out
C     -3.03300    1.38379    3.87002
H     -3.32055    1.12112    2.52006
O     -3.50064    0.94592    1.42981
H     -2.10250    0.81606    4.00687
H     -2.95031    2.47905    3.86943
H     -3.93571    0.96386    4.33519
Fe    -3.11431    1.02783   -0.24600
P     -4.26749    3.21900   -0.64342
H     -3.66237    4.42108   -0.19131
H     -4.68093    3.62774   -1.94049
N     -2.25602    0.52667   -2.17489
H     -1.27185    0.24257   -2.14340
H     -2.75226   -0.26388   -2.60641
P     -0.99821    2.30751    0.39446
H     -1.27022    3.33883    1.32854
H     -0.04321    1.56547    1.14110
N     -4.12311   -0.92021   -0.45355
H     -4.39974   -1.25711    0.47797
H     -0.12579    3.00151   -0.48850
H     -5.50401    3.29552    0.04749
H     -2.28589    1.29288   -2.85430
N     -3.90825   -1.87053   -1.43419
H     -4.64572   -2.58541   -1.45147
H     -3.01758   -2.33614   -1.25119
N     -5.02517    0.10166   -0.87053
H     -5.89472    0.10277   -0.32766
H     -5.24058   -0.04182   -1.86236
