35
./2005-w/FeO.out
C     10.70037    7.36331   15.08134
H     11.24348    7.11478   13.86900
O     11.79641    6.98453   12.87448
H     11.33113    6.73245   15.72284
H     10.83007    8.44968   15.17831
H      9.68055    7.00247   14.88392
Fe    13.01940    7.32918   11.74951
N     14.59094    7.68932   10.16924
N     12.12908    8.71319   10.50928
F     14.61777    8.29035   12.87610
N     13.71863    5.47713   11.36105
C     14.24681    8.88677    9.40674
H     14.84915    9.74831    9.74862
H     14.49303    8.80364    8.33408
C     12.82535    9.27484    9.59283
C     15.85336    7.82637   10.91513
H     16.13464    6.82833   11.28399
H     16.67839    8.17619   10.26639
C     15.70938    8.75118   12.09165
C     14.58832    6.44158    9.37127
H     15.54186    6.34965    8.81918
C     14.43502    5.26594   10.30908
H     12.41121   10.07192    8.95137
H     16.60390    8.73028   12.73356
H     13.54050    4.66640   11.96058
H     11.16398    9.04391   10.60926
H     15.47783    9.79493   11.82552
C     15.04462    3.97329    9.95254
H     14.91243    3.75366    8.88098
H     16.13725    4.05391   10.10837
H     14.66088    3.13987   10.55718
C     13.43125    6.34850    8.38425
H     13.51892    7.08965    7.57841
H     13.43595    5.36149    7.90055
H     12.46484    6.46572    8.89507
