58
./20264-az/FeO.out
C      8.05146   22.89103    8.58267
H      6.81120   22.97971    7.81427
O      5.92287   23.09784    7.15435
H      8.75163   22.31870    7.96043
H      8.26985   23.96251    8.68419
H      7.70756   22.39083    9.49765
Fe     6.35074   22.48470    5.56585
P      6.01328   20.33252    6.09382
C      5.77778   19.04905    4.81871
C      4.71063   19.22491    3.74176
C      4.20366   21.69640    3.70051
C      4.43738   23.09762    3.13815
P      5.06944   24.04126    4.56053
C      5.89876   20.69032    1.99403
C      7.28194   20.77324    2.61115
P      7.65543   22.12268    3.77476
C      9.26237   21.64182    4.47346
C      8.08822   23.52830    2.71144
H      4.80644   18.36080    3.06473
H      4.96515   21.66530    4.60374
H      3.72918   19.09102    4.22256
H      5.73490   21.55637    1.33356
H      5.92407   19.83064    1.30396
H      8.03141   20.88486    1.80823
H      7.54861   19.84559    3.13152
H      8.92063   23.23714    2.05100
H      7.23712   23.83338    2.08820
H      8.40728   24.37736    3.33341
H      9.99314   21.46489    3.66743
H      9.64035   22.44614    5.12401
H      9.14531   20.72589    5.06939
H      5.22850   23.08635    2.37812
H      3.53738   23.53233    2.67326
C      3.66096   24.34367    5.64612
H      4.02474   24.90279    6.52086
H      2.88847   24.92753    5.12023
H      3.24877   23.38838    5.99658
C      5.60792   25.67860    4.03336
H      6.01219   26.21158    4.90857
H      6.37802   25.62499    3.25508
H      4.73638   26.23523    3.65114
H      5.51757   18.15036    5.40707
H      6.76968   18.83038    4.39976
C      4.34685   20.39169    6.99284
H      3.65357   20.86191    6.27390
H      4.06635   19.32662    7.08413
C      7.13211   19.58073    7.29724
H      6.74491   18.59256    7.59545
H      8.14236   19.46295    6.88007
H      7.18616   20.23792    8.17533
C      4.67335   20.48976    2.87770
H      3.84804   20.32587    2.16026
N      4.33175   21.03600    8.23312
H      4.57280   22.02730    8.18979
H      4.80865   20.55488    8.98977
N      2.90747   21.53981    4.21532
H      2.27035   22.31823    4.09741
H      2.45467   20.64720    4.05415
