57
./20419-ai/FeO.out
C      6.77649   23.82984    8.44612
H      7.07975   23.27913    7.01132
O      7.39454   22.97277    6.05123
H      7.66479   23.41148    8.93552
H      6.80887   24.90277    8.22029
H      5.80677   23.42373    8.75834
Fe     6.33935   22.07898    4.95795
N      5.90608   20.35445    6.07061
C      5.56200   19.12362    5.18872
C      4.58261   19.53480    4.09450
P      5.11342   21.11723    3.41038
C      3.76365   22.24890    2.99297
C      4.35229   23.62714    3.21649
N      5.04590   23.74128    4.52141
C      6.20406   20.84664    1.98191
C      7.58852   20.63669    2.55995
N      7.92428   21.64815    3.58367
C      9.18550   21.29278    4.24319
C      8.06194   22.97781    2.98168
H      4.51430   18.74289    3.33318
H      3.41886   22.12070    1.95417
H      2.90717   22.04138    3.65242
H      3.57217   19.67015    4.51388
H      6.15203   21.73389    1.33178
H      5.88043   19.98101    1.38193
H      8.35417   20.64793    1.76326
H      7.64745   19.65099    3.04371
H      8.83065   22.97019    2.18855
H      7.10830   23.28951    2.53808
H      8.35441   23.69076    3.76280
H     10.02359   21.36466    3.52895
H      9.35413   21.97552    5.08548
H      9.13509   20.25812    4.60439
H      5.09226   23.85081    2.43361
H      3.57323   24.40721    3.14676
C      4.07364   23.69325    5.62103
H      4.60440   23.80221    6.57401
H      3.34382   24.51629    5.52644
H      3.53429   22.74036    5.61217
C      5.75472   25.02975    4.57439
H      6.31189   25.09909    5.51473
H      6.45828   25.10620    3.73851
H      5.02991   25.85853    4.50483
H      6.54041   18.88789    4.73626
C      4.79257   20.64727    6.97023
H      3.86902   20.80498    6.40024
H      4.63148   19.80688    7.66322
H      5.01839   21.54811    7.55278
C      7.13985   20.06820    6.88442
H      7.94821   19.92516    6.15848
H      7.35208   21.00701    7.41885
N      7.02747   18.92499    7.72403
H      6.85492   19.14540    8.70142
H      7.83812   18.31427    7.67196
N      5.07432   17.99640    5.85428
H      4.09927   18.06002    6.13283
H      5.66401   17.74623    6.64969
