34
./2080-v/FeO.out
C     10.95688    7.52958   15.24600
H     11.49630    7.28093   14.08287
O     12.04461    7.12176   13.04187
H     11.64902    7.01567   15.92754
H     10.96874    8.62752   15.28394
H      9.97153    7.06004   15.11369
Fe    13.19870    7.42347   11.84839
N     14.69241    7.67075   10.13469
N     12.10730    8.39238   10.39911
O     14.66906    8.66062   12.64031
N     13.83004    5.51324   11.46224
C     14.21481    8.79527    9.33355
H     14.66868    9.73987    9.68724
H     14.51292    8.71934    8.27146
C     12.74043    8.97143    9.44952
C     15.96522    7.93607   10.79214
H     16.43323    6.98196   11.09461
H     16.70231    8.43490   10.13949
C     15.77672    8.69336   12.08588
C     14.66161    6.39817    9.38245
H     13.76058    6.44425    8.73744
C     14.35337    5.27215   10.31960
H     12.23331    9.62909    8.72229
H     14.55117    4.24259    9.97635
H     13.59422    4.69830   12.03800
H     11.09929    8.57247   10.44964
C     16.91713    9.42017   12.66457
H     16.75799    9.63199   13.73069
H     17.86590    8.88626   12.49099
H     17.00962   10.38417   12.12558
C     15.85958    6.13114    8.48798
H     16.03302    6.97609    7.80610
H     16.77821    5.94727    9.06329
H     15.66951    5.24307    7.86626
