40
./2120-ad/FeO.out
C      8.51856   23.38313    8.42804
H      7.78229   22.90764    7.45740
O      7.11724   22.48155    6.56600
H      9.25585   22.57840    8.55866
H      8.89653   24.31775    7.99038
H      7.77362   23.49116    9.22922
Fe     6.17345   22.03007    5.24857
N      5.54199   20.14042    5.78582
C      5.61808   19.15706    4.66829
C      4.56663   19.43586    3.60584
C      4.05565   21.93096    3.51299
C      4.61935   23.33711    3.30001
N      5.25419   23.77571    4.55766
C      5.91800   20.87467    1.92473
C      7.19368   21.35474    2.49433
N      7.42825   21.77496    3.68887
H      4.58835   18.57212    2.92735
H      2.97268   21.94250    3.31170
H      4.05437   21.73326    4.60830
H      3.56813   19.38925    4.07551
H      5.71000   21.66112    1.16504
H      5.38466   23.36112    2.51260
H      3.83415   24.04767    2.99555
H      6.62446   19.27555    4.23410
C      4.63625   20.71011    2.75849
H      3.90046   20.51851    1.96082
H      6.17801   19.84464    6.53514
H      4.60789   20.09009    6.20881
H      8.39916   22.06709    3.84024
H      5.90127   24.55855    4.41985
H      4.54745   24.12074    5.21639
H      8.03055   21.35877    1.77282
C      6.21630   19.61640    1.09237
H      6.97642   19.81757    0.32272
H      6.57747   18.78947    1.72006
H      5.30069   19.29033    0.57791
C      5.48762   17.74896    5.21911
H      4.48788   17.58535    5.65342
H      5.63095   17.01151    4.41518
H      6.24601   17.54833    5.99256
