29
./2139-c/FeO.out
C      0.61882    0.03743   -4.51332
H      0.20061    0.13214   -3.17801
O     -0.10458    0.17100   -2.10267
H     -0.07026    0.75568   -4.97933
H      0.42842   -1.02579   -4.71467
H      1.67134    0.34366   -4.44102
N     -0.32647   -2.12264   -0.19672
O      0.39007    2.15422   -0.05940
N      2.22252   -0.34003   -0.09619
N     -2.10642    0.26566   -0.24802
O     -0.11340    0.11430    1.92905
H     -0.12048   -2.63022    0.66670
H      0.07599   -2.67481   -0.95894
H      1.00526    2.58744    0.55074
H      0.42466    2.68135   -0.87223
H      2.79109    0.37936   -0.55332
H      2.55185   -1.22570   -0.49235
H     -0.03142   -0.60560    2.57127
H     -0.25696    0.90353    2.47111
Fe     0.07077   -0.01492   -0.39209
H      2.52116   -0.34924    0.88334
H     -2.32814    0.16745    0.74827
H     -1.35504   -2.13861   -0.34060
N     -2.63614    1.51496   -0.65644
H     -2.32288    2.23556   -0.00229
H     -2.23231    1.73113   -1.57178
N     -2.71374   -0.81449   -0.90106
H     -3.73543   -0.71584   -0.85160
H     -2.44764   -0.75223   -1.88739
