23
./2173-bb/FeO.out
C     -3.16227   -0.19731    3.59241
H     -3.26935    0.89563    3.67437
O     -2.88182    2.80061    1.67709
H     -2.43541   -0.46718    2.80898
H     -2.78858   -0.57795    4.55497
H     -4.13342   -0.68464    3.40585
Fe    -2.75315    2.10509    0.22164
P     -3.35153    4.26122   -0.47022
H     -2.43611    5.22802    0.00759
H     -3.48450    4.56898   -1.84964
N     -2.63373    1.30435   -1.70871
H     -1.96215    1.79990   -2.30544
H     -2.35114    0.31868   -1.75207
N     -0.73648    1.65560    0.60725
H     -0.51271    1.84189    1.59481
N     -4.17143    0.67714    0.75457
H     -4.28760    0.65490    1.78023
H     -0.31410    0.75203    0.35504
H     -4.58763    4.65978    0.08966
H     -4.11440   -0.29729    0.43210
H     -3.52947    1.34795   -2.20761
Br    -5.71190    1.43494   -0.00276
Br     0.12565    2.97976   -0.41278
