33
./2224-z/FeO.out
C     10.81557    7.59131   15.07921
H     11.53833    7.09312   14.14784
O     12.24325    6.74705   13.21958
H     11.56799    7.88363   15.82538
H     10.28920    8.41380   14.57540
H     10.20228    6.71397   15.33297
Fe    13.23855    7.19171   11.94566
N     14.60059    7.69360   10.30673
F     12.06720    8.59122   10.76018
F     14.75023    8.41506   12.91460
N     13.68871    5.41606   11.28667
C     14.11708    8.91122    9.63850
H     14.37857    9.77534   10.26530
H     14.60354    9.06156    8.65841
C     12.62256    8.87220    9.47896
C     15.96648    7.86763   10.92854
H     16.21407    6.86351   11.31312
C     15.86532    8.79668   12.12281
C     14.64604    6.54787    9.40304
H     13.88894    6.65498    8.60982
H     15.62805    6.50803    8.89677
C     14.32556    5.27941   10.14366
H     12.21671    9.84360    9.15649
H     16.75950    8.70697   12.75783
H     13.40825    4.56713   11.78128
H     15.71425    9.85277   11.84835
H     12.25565    8.08100    8.80570
N     14.65076    4.12481    9.58878
H     14.39380    3.23335   10.00677
H     15.14590    4.08665    8.70231
N     16.93517    8.25203    9.97872
H     17.07626    9.25415    9.87464
H     17.83099    7.78061   10.06093
