28
./2228-v/FeO.out
C     10.79865    7.29823   15.20874
H     11.33239    7.22597   14.03029
O     11.88772    7.20750   12.96495
H     11.58245    6.87164   15.85013
H     10.62503    8.37828   15.31516
H      9.90318    6.67702   15.06140
Fe    13.08659    7.48883   11.82001
N     14.61924    7.71769   10.10124
N     12.08842    8.62618   10.45366
O     14.59995    8.71297   12.62382
N     13.87880    5.59990   11.56101
C     14.16555    8.83314    9.26827
H     14.69449    9.75584    9.57249
H     14.40972    8.69751    8.19972
C     12.71462    9.11006    9.44846
C     15.90045    7.98774   10.75474
H     16.38884    7.04015   11.04567
H     16.61858    8.51252   10.10126
C     15.68362    8.73521   12.04965
C     14.65155    6.40718    9.44377
H     15.56555    6.25976    8.84031
C     14.46572    5.31619   10.45892
H     12.22216    9.77687    8.72008
H     14.79229    4.29690   10.19307
H     13.70692    4.81192   12.19449
H     11.09967    8.88117   10.54159
Br    17.13828    9.61572   12.74439
Br    13.18232    6.12154    8.22444
