33
./2229-z/FeO.out
C     10.64484    7.59481   14.89268
H     11.37959    7.10086   13.96945
O     12.12091    6.76067   13.06721
H     11.34902    7.66198   15.73414
H     10.31364    8.55029   14.46282
H      9.87714    6.81060   14.96869
Fe    13.23047    7.20256   11.89077
N     14.57455    7.68440   10.21109
F     12.33160    8.96172   11.02499
F     14.88207    8.08943   12.95480
N     13.73702    5.41307   11.28668
C     14.16884    8.92981    9.53355
H     14.72344    9.75740    9.99657
H     14.44070    8.91401    8.46424
C     12.69056    9.18581    9.65931
C     15.90210    7.79697   10.84461
H     16.23824    6.78134   11.10964
H     16.64827    8.21317   10.14208
C     15.87524    8.63363   12.09332
C     14.55384    6.48954    9.31140
H     15.49042    6.48221    8.72530
C     14.48012    5.26454   10.21312
H     12.42842   10.23059    9.43146
H     16.83371    8.58505   12.63301
H     13.53170    4.58467   11.84904
H     15.59690    9.68632   11.93015
H     12.08268    8.49416    9.06163
N     15.04253    4.13766    9.81242
H     14.91822    3.26209   10.31637
H     15.58637    4.09546    8.95555
N     13.44875    6.50250    8.43010
H     12.62944    5.99162    8.74797
H     13.66235    6.28275    7.46212
