27
./2244-bb/FeO.out
C     -3.92575    0.11409    3.78641
H     -3.58527    1.10692    3.45061
O     -2.33001    2.58130    1.46363
H     -4.01743    0.14851    4.88249
H     -4.91322   -0.15046    3.37581
H     -3.18506   -0.66854    3.54992
Fe    -2.57605    2.03434   -0.03954
P     -3.71908    4.06213   -0.27464
H     -2.87840    5.19771   -0.15818
H     -4.48314    4.36962   -1.43191
N     -2.66358    1.58253   -2.08094
H     -1.76141    1.95084   -2.42314
H     -2.68254    0.59189   -2.34177
N     -0.57137    1.39783   -0.16245
H     -0.13592    1.39154    0.77116
H     -0.49413    0.44801   -0.53684
N     -3.39527    0.17562    0.64936
H     -3.24431    0.00332    1.65359
H     -4.64354    4.25747    0.77730
H     -3.50747   -0.72454    0.17369
H     -3.39200    2.02780   -2.64585
N     -4.51244    1.02709    0.46781
H     -5.20305    0.63489   -0.17700
H     -4.96496    1.23429    1.36364
N      0.00812    2.30044   -1.07682
H      0.17453    3.18711   -0.59486
H      0.92144    1.96806   -1.40605
