30
./2254-l/FeO.out
C     11.00077    8.28661   14.29040
H     11.78657    7.81556   13.24345
O     12.41922    7.43554   12.39479
H     11.36713    7.66266   15.11737
H     11.28003    9.34897   14.31329
H      9.99588    8.05465   13.91118
Fe    13.80748    7.73045   11.38062
O     15.61144    8.23895   10.07549
O     12.88708    9.23276   10.37556
N     15.16956    8.10694   12.95691
N     13.97157    5.92607   10.57901
C     16.31525    7.57546   13.15014
C     13.21280    4.85478   10.71130
H     13.48953    3.92530   10.18869
H     16.88414    7.71620   14.08536
H     14.82849    8.65461   13.75572
H     14.77957    5.74951    9.98298
H     11.94988    9.35698   10.60688
H     16.24625    8.93147   10.30902
H     15.65181    8.18091    9.10998
H     16.76237    6.95279   12.36005
C     13.07790   10.06954    9.12049
H     13.19954    9.33751    8.30638
H     14.02124   10.60251    9.31336
N     12.12034    4.81335   11.43905
H     11.84611    5.65631   11.95764
H     11.57540    3.95996   11.51190
N     11.99306   10.89121    8.94043
H     12.04785   11.86477    9.21794
H     11.33348   10.69479    8.19639
