41
./2385-t/FeO.out
C     -1.85104    1.64995    4.14146
H     -2.19262    1.74758    2.86533
O     -2.48343    1.86192    1.73399
H     -1.10468    0.84337    4.11799
H     -1.47213    2.65825    4.35908
H     -2.81944    1.39563    4.59538
Fe    -2.50734    2.09971    0.04526
N     -3.69304    3.81250   -0.19478
O     -1.92715    1.28986   -1.84920
O     -0.51320    2.73236    0.04582
O     -4.09835    0.71299   -0.03218
C     -4.83344    3.76135    0.73195
H     -5.44381    4.67384    0.62199
H     -5.45189    2.88649    0.49577
H     -4.47227    3.68164    1.76313
C     -2.87023    5.03441   -0.00674
H     -2.04047    4.96946   -0.72782
H     -3.49015    5.89281   -0.32682
C     -4.15792    3.73464   -1.58686
H     -4.71994    2.80241   -1.74243
H     -4.83211    4.57914   -1.81390
H     -3.30040    3.79407   -2.27386
H     -2.50532    1.30888   -2.62422
H     -0.11852    2.78075    0.92859
H     -4.28403    0.44354    0.88071
C     -4.54328   -0.29851   -0.94259
H     -3.87170   -1.17265   -0.92185
H     -5.56764   -0.60733   -0.67896
H     -4.56174    0.13897   -1.94957
C      0.36074    3.32015   -0.92664
H      1.31054    2.76304   -0.96972
H     -0.14597    3.25226   -1.89706
H      0.55153    4.37673   -0.67795
C     -2.36203    5.25661    1.39409
H     -1.66341    6.10693    1.38382
H     -3.16894    5.51275    2.09498
H     -1.83146    4.37729    1.78448
C     -0.94117    0.25701   -2.02165
H     -0.34861    0.44902   -2.93033
H     -0.28096    0.29479   -1.14524
H     -1.42009   -0.73357   -2.08245
