24
./243-aq/FeO.out
C     -0.05453   -0.36543   -4.56351
H      0.30536   -0.49318   -3.23029
O      0.50175   -0.55258   -2.12711
H      0.01222    0.72391   -4.68555
H     -1.06133   -0.80342   -4.56852
H      0.75253   -0.96472   -5.00863
O     -0.52389   -2.35053   -0.35483
P      2.33998   -0.71072    0.15924
O     -2.20728    0.03350   -0.73029
O     -0.64313   -0.14987    1.57278
H     -0.20641   -2.91485   -1.08514
H      2.83005   -1.99331   -0.19517
H      2.78289   -0.60718    1.50441
H     -2.73906   -0.75317   -0.95848
H     -0.34492   -0.70898    2.30556
H     -1.56816    0.06680    1.76690
Fe    -0.02803   -0.27542   -0.51176
H      3.27506    0.12449   -0.50184
P      0.32881    2.22706   -0.34053
H      1.47004    2.62224    0.40598
H      0.54290    2.94360   -1.54458
H     -0.66978    3.01758    0.28427
Br    -0.86265   -3.48744    1.07474
Br    -2.78554    1.36045   -1.89347
