23
./2443-bb/FeO.out
C     -3.11345    3.06055    4.25683
H     -2.97266    2.06077    3.81704
O     -3.13919    0.30044    1.26983
H     -2.63364    3.07451    5.24721
H     -2.64046    3.84359    3.64191
H     -4.18475    3.27579    4.38790
Fe    -2.77659    0.91596   -0.17973
P     -4.04087    2.72806    0.63510
H     -3.78100    2.98531    2.00334
H     -3.95846    3.98899   -0.01156
N     -2.52669    1.78716   -2.10941
H     -3.21872    2.52127   -2.30871
N     -0.74235    0.85418    0.29858
H     -0.50696    0.12734    0.98802
H     -0.04597    0.84390   -0.46039
N     -3.44101   -0.86267   -1.10556
H     -2.78401   -1.31988   -1.74805
H     -3.62110   -1.53877   -0.35416
H     -5.42639    2.42672    0.58667
H     -4.32773   -0.77882   -1.61653
H     -2.66009    1.10228   -2.86492
Br    -0.58330    2.50971    1.16670
Br    -0.86212    2.59909   -2.50918
