33
./2519-w/FeO.out
C     10.55541    7.37314   15.12875
H     11.24565    7.04740   14.00156
O     11.87117    6.85498   13.07328
H     11.05068    6.71849   15.85897
H     10.75344    8.44910   15.22327
H      9.54075    7.08427   14.82116
Fe    13.09281    7.23312   11.94839
N     14.65363    7.62383   10.28299
N     12.10843    8.43140   10.55534
F     14.50870    8.26794   12.90746
N     13.67998    5.40177   11.43553
C     14.24028    8.79919    9.52292
H     14.75296    9.70556    9.88964
H     14.52252    8.73923    8.45448
C     12.77747    9.04890    9.65756
C     15.93408    7.75681   10.97180
H     16.20260    6.76610   11.37089
H     16.73987    8.06112   10.27556
C     15.91935    8.73739   12.11470
C     14.60219    6.41389    9.47121
H     13.75942    6.49750    8.76488
H     15.51783    6.28064    8.86606
C     14.31893    5.19534   10.31475
H     12.31350    9.78680    8.98024
H     13.41558    4.57904   11.97940
H     11.11173    8.66475   10.60663
H     15.57267    9.75419   11.89251
N     16.95585    8.70144   12.93929
H     17.11830    9.46283   13.59187
H     17.44029    7.83240   13.14339
N     14.68071    4.01395    9.83170
H     14.43484    3.14659   10.30144
H     15.17364    3.92968    8.94866
