29
./2585-a/FeO.out
C      0.19623    0.31700   -4.38553
H      0.45127    0.22075   -3.03818
O      0.60995    0.14465   -1.91375
H     -0.49491   -0.52291   -4.54061
H     -0.23181    1.32618   -4.45846
H      1.21707    0.18879   -4.77271
O     -0.30632   -1.93884   -0.09437
O      0.51999    2.25892   -0.00121
N      2.25387   -0.26570    0.27350
O     -1.92939    0.39612   -0.35468
O     -0.38871    0.21844    1.88498
H     -0.41149   -2.44290    0.72600
H     -0.14147   -2.58294   -0.79950
H      0.28598    2.81153    0.75852
H      0.75572    2.85542   -0.72723
H      2.79531    0.46477   -0.19942
H      2.49291   -1.12305   -0.23376
H     -2.36490   -0.46202   -0.47253
H      0.07200    0.19080    2.73471
H     -1.31576    0.42101    2.07787
Fe     0.22118    0.15998   -0.24569
C      2.67799   -0.37435    1.67135
H      2.12281   -1.18499    2.16570
H      3.75530   -0.59596    1.75410
H      2.48465    0.57605    2.19000
C     -2.55567    1.35761   -1.21542
H     -2.08039    2.32610   -1.01151
H     -2.41622    1.09172   -2.27629
H     -3.63002    1.42719   -0.97990
