32
./2654-n/FeO.out
C     11.71852    7.83940   15.40781
H     12.27523    7.94517   14.12938
O     12.73486    8.03476   13.10305
H     12.17859    6.90689   15.76291
H     12.08073    8.77113   15.86401
H     10.64865    7.79743   15.16027
Fe    13.46800    8.06911   11.56184
O     14.24438    7.90789    9.47224
O     12.51451    9.72742   10.96814
O     15.36546    8.13789   12.18665
O     12.77364    6.15147   11.00426
H     15.48840    8.18684   13.15068
H     11.96674    5.93065   11.49623
H     11.94184   10.13499   11.64160
H     13.80400    7.33591    8.82670
H     14.79126    8.51598    8.95574
C     12.25751   10.54349    9.68809
H     13.23295   11.00715    9.47606
H     12.01124    9.77222    8.94360
C     16.79312    8.23362   11.59505
H     16.78621    7.43847   10.83566
H     16.81707    9.23244   11.13310
C     13.65121    5.01221   11.03732
H     13.96058    4.78280   12.07099
H     13.14262    4.14229   10.59106
H     14.53136    5.26567   10.43109
N     11.25981   11.45182    9.89887
H     11.47941   12.42673   10.06791
H     10.31339   11.25941    9.59149
N     17.72879    8.07124   12.57250
H     18.15520    7.16727   12.73986
H     18.21317    8.87087   12.96367
