25
./278-ar/FeO.out
C      0.38632   -0.06954   -4.59012
H      0.00605   -0.36325   -3.26373
O     -0.27348   -0.49623   -2.19490
H     -0.29132    0.75813   -4.83943
H      0.15777   -1.04626   -5.03971
H      1.44694    0.17477   -4.44734
P      2.16534   -0.51124   -0.17752
O     -2.35474    0.47973   -0.43458
O     -0.42161    0.46102    1.61871
H      2.55223   -1.87097   -0.34305
H     -2.83069    0.82151    0.33647
H     -2.98753    0.41232   -1.16510
H      0.12203    1.19583    1.95137
H     -0.53980   -0.13858    2.36981
Fe    -0.31695   -0.05139   -0.53275
H      2.79930   -0.25287    1.07054
P      0.49579    2.35434   -0.76703
H      1.29443    2.69986   -1.88870
H     -0.46876    3.40137   -0.82839
P     -0.68456   -2.50043   -0.05989
H      0.19826   -3.36296   -0.75627
H     -0.69356   -3.11352    1.22224
H     -1.93119   -2.94736   -0.56953
Br     3.46593    0.49096   -1.58999
Br     1.73676    2.97859    0.91211
