35
./2827-aa/FeO.out
C      8.60067   23.44743    8.33745
H      7.80615   23.00074    7.41924
O      7.06659   22.57982    6.55338
H      9.29785   22.60702    8.46556
H      9.01246   24.34929    7.86221
H      7.89157   23.61686    9.16086
Fe     6.12038   22.03342    5.28351
N      5.50180   20.16007    5.89870
C      5.72284   19.16787    4.83418
C      4.73602   19.30421    3.68637
C      4.11142   21.79720    3.48948
C      4.67237   23.19789    3.23113
N      5.20945   23.72011    4.50258
C      6.00020   20.75307    1.96034
C      7.37769   20.86308    2.57373
O      7.39496   21.75471    3.71559
H      4.90346   18.43169    3.03399
H      3.03709   21.78884    3.25180
H      4.04837   21.63429    4.58956
H      5.85038   21.62627    1.30762
H      6.07776   19.90190    1.26476
H      7.77565   19.89036    2.90676
H      5.49840   23.18944    2.50777
H      3.90088   23.87484    2.83038
H      5.60963   18.15233    5.25159
H      6.76013   19.24652    4.47889
C      4.73362   20.55572    2.79818
H      4.00012   20.29247    2.01878
H      6.02239   19.90102    6.74326
H      4.50284   20.10249    6.15280
H      8.32050   22.02464    3.86254
H      5.83770   24.51952    4.36798
H      4.45294   24.06250    5.10583
Cl     8.52959   21.48691    1.40800
Cl     3.10477   19.09314    4.38647
