53
./287-bd/FeO.out
C      7.27451   23.98958    8.48234
H      7.31887   23.44795    7.28669
O      7.27982   22.94345    6.21960
H      7.58132   23.13813    9.10490
H      8.01395   24.79282    8.35342
H      6.22601   24.30210    8.56778
Fe     6.38347   22.14656    5.03264
N      5.92557   20.03917    6.22755
C      5.41384   19.17731    5.13593
C      4.55919   19.94799    4.14961
N      5.20549   21.12151    3.53422
C      4.13319   21.99949    2.99917
C      4.51486   23.45496    2.93675
N      5.03636   23.98030    4.22416
C      6.19186   20.79678    2.47632
C      7.62611   20.72461    2.96362
N      8.02449   21.93556    3.69351
C      9.34542   21.81278    4.33906
C      8.05475   23.13370    2.84831
H      3.84598   21.66652    1.98851
H      3.24319   21.86205    3.62427
H      3.67757   20.33260    4.67054
H      6.12200   21.55525    1.68674
H      5.92680   19.83660    2.00709
H      7.78033   19.88035    3.64433
H      8.87611   23.04631    2.11935
H      7.12257   23.24633    2.29267
H      8.23117   24.00925    3.48193
H     10.10746   21.67543    3.55589
H      9.54424   22.73618    4.89506
H      9.37403   20.96445    5.02349
H      5.30029   23.61856    2.19243
H      3.64166   24.03935    2.60346
C      4.02697   23.95425    5.29169
F      4.39630   24.68849    6.31389
F      2.82945   24.29424    4.87872
F      3.96864   22.66045    5.71419
C      5.62626   25.35345    4.08303
F      6.52782   25.53324    5.02929
F      6.20771   25.45553    2.89982
F      4.67971   26.26815    4.17319
H      4.81153   18.34628    5.53380
H      6.27146   18.72485    4.62331
C      4.94639   20.26878    7.33699
F      3.72094   20.27977    6.83325
F      5.01149   19.33168    8.25633
F      5.20938   21.44606    7.88668
C      7.18580   19.48054    6.77318
F      7.04117   18.23558    7.17157
F      8.08922   19.48545    5.78560
F      7.61630   20.23903    7.75754
Cl     3.94303   18.80851    2.94940
Cl     8.65335   20.40988    1.56304
