28
./289-s/FeO.out
C      0.18722    0.23334   -4.36185
H      0.51799    0.00055   -3.03524
O      0.72420   -0.14049   -1.93148
H      0.01198    1.31810   -4.37525
H     -0.69341   -0.40953   -4.49848
H      1.11947   -0.11298   -4.83085
O     -0.16498   -2.15783   -0.13149
O      0.93212    2.03460   -0.13776
N      2.47650   -0.53404    0.20941
O     -1.67110    0.68754   -0.44887
H     -0.14421   -2.75797   -0.89990
H      1.27641    2.38858   -0.97464
H      2.93830   -0.83018   -0.65565
H      2.62832   -1.28276    0.89048
H     -1.94832    0.94868   -1.34045
H     -2.46544    0.31312   -0.03920
Fe     0.42139   -0.04375   -0.24012
H      3.00349    0.27630    0.54901
N     -0.02611   -0.10210    1.88289
H     -0.78698    0.49396    2.21763
H     -0.31943   -1.08462    2.05132
H      0.75558    0.07843    2.51805
N     -0.55433   -2.79908    1.04843
H     -1.48961   -3.19739    0.90430
H      0.08805   -3.58196    1.21786
N      0.20714    3.09635    0.43433
H      0.58687    3.22204    1.37740
H     -0.76109    2.77192    0.51251
