28
./294-b/FeO.out
C      0.03912   -0.39559   -4.54583
H      0.30596   -0.21987   -3.20647
O      0.46962   -0.06980   -2.09569
H     -0.45854   -1.37497   -4.54645
H     -0.59272    0.47823   -4.75699
H      1.06378   -0.36824   -4.94287
O     -0.01925   -2.08177    0.24289
O      0.36742    2.22156   -0.32445
N      2.23812    0.03554    0.05156
N     -1.95749    0.01923   -0.38518
O     -0.07104    0.69154    1.87953
H      0.64629   -2.77063    0.06471
H      0.43660    2.34895    0.64221
H      2.50903    1.01683   -0.17054
H      2.76316   -0.54825   -0.60550
H     -2.46803    0.71637    0.16197
H     -2.33760    0.07450   -1.33405
H      0.54302    0.42121    2.57863
H     -0.91720    0.78736    2.34246
Fe     0.16020    0.04535   -0.41531
H      2.59351   -0.18072    0.98557
H     -2.19057   -0.92435   -0.01453
N     -1.29913   -2.63750    0.37998
H     -1.32026   -3.15379    1.26715
H     -1.44331   -3.31703   -0.37598
N      1.62155    2.64791   -0.85411
H      1.62788    3.67326   -0.76233
H      1.50580    2.47410   -1.85939
