24
./2942-ag/FeO.out
C      0.21941   -0.00394   -4.50831
H      0.34390   -0.17361   -3.13725
O      0.33646   -0.26979   -2.01985
H     -0.47353    0.84522   -4.58050
H     -0.16941   -0.98976   -4.79920
H      1.27639    0.19795   -4.73468
O     -0.43486   -2.07879    0.02891
O      0.16739    2.09619   -0.37323
P      2.20945   -0.34074   -0.03760
N     -2.38277    0.33592   -0.58766
O     -0.37725    0.21115    1.78567
H     -0.61603   -2.50594    0.87899
H     -0.30492   -2.78017   -0.62699
H      0.32662    2.59066    0.44499
H      0.81138    2.43143   -1.01703
H      2.82317   -1.48758   -0.61458
H     -2.62911    1.33119   -0.56655
H     -2.72100   -0.00809   -1.49265
H      0.40538    0.08048    2.34602
H     -1.08678    0.49642    2.37997
Fe    -0.25769    0.00328   -0.41095
H     -2.97632   -0.11915    0.11273
Cl     2.84866   -0.49355    1.87735
Cl     3.27589    1.13305   -0.88853
