25
./2968-u/FeO.out
C      0.73318   -0.09456   -4.46966
H      0.25889   -0.21758   -3.16603
O     -0.05007   -0.27792   -2.07983
H     -0.17429    0.29106   -4.95603
H      0.99520   -1.14030   -4.68422
H      1.56938    0.61011   -4.36312
O     -0.15456   -2.17097    0.01227
O      0.17888    2.09770   -0.49356
N      2.22884   -0.38373   -0.23966
N     -2.14652    0.10497   -0.26927
H     -0.87022   -2.47650    0.59474
H     -0.23520   -2.71081   -0.79036
H      0.78174    2.62673    0.05158
H      0.21138    2.49538   -1.37751
H      2.62614   -0.48402   -1.18196
H     -2.45630    1.08022   -0.16524
H     -2.52914   -0.21600   -1.16760
Fe     0.04756   -0.05000   -0.37430
H      2.45270   -1.25946    0.25116
N      0.08589    0.23183    1.81118
H     -0.66493    0.82479    2.17670
H      0.00696   -0.64100    2.34056
H      0.95856    0.66039    2.13781
Br    -3.05809   -0.86916    1.06082
Br     3.25419    0.95625    0.60179
