27
./299-a/FeO.out
C      0.53571   -0.03679   -4.47896
H      0.48722   -0.20449   -3.14753
O      0.44769   -0.28768   -1.99365
H      0.65798   -1.08082   -4.80142
H     -0.43911    0.42576   -4.68755
H      1.41681    0.61057   -4.59025
O     -0.16670   -2.13059    0.12567
O      0.45328    2.19339   -0.28583
N      2.26732   -0.29661    0.17694
O     -1.85127    0.04400   -0.27520
O     -0.02992    0.27810    1.92991
H     -0.12618   -2.47290   -0.78744
H      0.17512    2.75748    0.45189
H      0.57127    2.77343   -1.05347
H      2.79747   -0.30786   -0.70035
H      2.44664   -1.20521    0.61576
H     -2.34488    0.27058   -1.07779
H     -2.04173   -0.96252   -0.05523
H      0.66328   -0.24524    2.36311
Fe     0.21224    0.10241   -0.34628
H      2.71772    0.41165    0.76529
N     -1.52096   -2.28824    0.52912
H     -1.49424   -2.03966    1.53571
H     -1.76613   -3.28355    0.44770
N     -1.23545   -0.22240    2.52874
H     -1.22964    0.14302    3.49145
H     -1.95700    0.33056    2.05224
