36
./3174-ae/FeO.out
C      8.42174   23.46341    8.50328
H      7.77050   22.99810    7.50347
O      7.15244   22.56227    6.54629
H      9.20582   22.70517    8.64017
H      8.76321   24.43905    8.12947
H      7.64850   23.49617    9.28407
Fe     6.25917   22.08851    5.21360
N      5.79103   20.16324    5.61550
C      5.33647   19.21850    4.85772
C      4.55823   19.36885    3.59324
C      4.13351   21.85720    3.51434
C      4.67188   23.25129    3.19959
N      5.30042   23.78054    4.42492
C      5.99924   20.74832    2.00241
C      7.29754   21.15169    2.56245
N      7.54047   21.69988    3.69900
H      4.83827   18.52680    2.93853
H      3.03784   21.84907    3.41805
H      4.25016   21.66391    4.60430
H      5.85339   21.42497    1.13220
H      6.18336   19.78249    1.49471
H      5.43802   23.22370    2.41330
H      3.87793   23.92384    2.83864
C      4.63886   20.64299    2.70594
H      8.53038   21.91925    3.84938
H      5.92677   24.56867    4.23276
H      4.58985   24.14916    5.06630
H      8.14276   20.99033    1.86860
H      6.16941   19.82575    6.50643
H      5.40693   18.17711    5.21767
N      3.71552   20.51673    1.60079
H      2.79665   20.23597    1.94877
H      4.01283   19.82340    0.91397
N      3.19093   19.14599    4.01083
H      2.91174   19.63470    4.85894
H      2.90748   18.16928    4.06320
