30
./319-l/FeO.out
C     11.65628    8.37637   15.33836
H     12.05085    8.08811   14.02869
O     12.43276    7.84296   13.00695
H     12.36468    7.76738   15.91596
H     11.80012    9.46516   15.36768
H     10.61776    8.01912   15.30051
Fe    13.48887    7.58180   11.67451
O     14.63508    7.63448    9.66993
O     12.26477    8.86641   10.48122
N     15.22427    8.14769   12.55385
N     12.98946    5.66380   11.35427
C     16.47578    7.77050   12.49466
C     13.25700    4.81255   10.39625
H     17.20959    8.18703   13.20321
H     15.06799    8.78327   13.33666
H     12.36226    5.30506   12.07882
H     11.36431    8.77989   10.83450
H     14.05153    7.76495    8.90638
H     15.35355    8.26999    9.53499
H     13.92054    5.14201    9.58490
C     12.57416   10.26618   10.40754
H     13.59354   10.35318   10.00641
H     11.87458   10.76709    9.71841
H     12.52479   10.73678   11.40425
N     12.81142    3.57212   10.29043
H     12.18761    3.15426   10.97736
H     13.07509    2.99199    9.49891
N     16.97354    6.90395   11.62433
H     17.95657    6.65229   11.65884
H     16.38715    6.42935   10.94592
