24
./3283-ag/FeO.out
C     -0.09177    0.10557   -4.41946
H      0.25593   -0.02773   -3.06828
O      0.44659   -0.11887   -1.97105
H     -1.17634   -0.06344   -4.41184
H      0.53561   -0.70085   -4.82520
H      0.24641    1.13503   -4.60084
O     -0.59843   -2.02664   -0.10768
O      0.48739    2.07487   -0.09440
P      2.42057   -0.57712    0.17083
N     -2.17632    0.33544   -0.68375
O     -0.41498    0.13933    1.81918
H     -0.81234   -2.47361    0.72447
H     -0.35218   -2.71338   -0.74528
H      0.08061    2.66379    0.55870
H      0.64561    2.61071   -0.88638
H      3.33834    0.31815   -0.43307
H      2.84413   -1.81044   -0.38526
H     -2.42622   -0.39188   -1.36960
H      0.16978    0.22495    2.58531
H     -1.32675    0.22149    2.14702
Fe     0.01423    0.01795   -0.30762
H      2.96203   -0.67574    1.48034
Br    -3.43004    0.01971    0.71472
Br    -2.49247    1.94860   -1.62701
