34
./335-v/FeO.out
C     10.83927    7.71145   15.21896
H     11.38572    7.32945   14.09431
O     11.93632    7.06252   13.08010
H     11.49533    7.22379   15.95360
H     10.90706    8.80649   15.16282
H      9.83387    7.28074   15.10700
Fe    13.06115    7.35511   11.85578
N     14.55756    7.62194   10.15229
N     11.95513    8.22940   10.35917
O     14.59813    8.58736   12.68619
N     13.74393    5.48182   11.53098
C     14.07283    8.75482    9.33425
H     14.39607    9.67673    9.85927
C     12.57843    8.82372    9.41243
C     15.84342    7.90400   10.77524
H     16.38872    6.96518   10.99355
H     16.52952    8.48509   10.13029
C     15.67572    8.57343   12.10262
C     14.53011    6.33743    9.45680
H     13.68004    6.32385    8.75294
H     15.43086    6.16329    8.84397
C     14.29302    5.19163   10.40023
H     12.04940    9.43278    8.66003
H     16.56603    9.04196   12.57781
H     13.53620    4.69001   12.14639
H     10.93743    8.35291   10.37898
C     14.60985    8.82185    7.91527
H     14.31172    9.77344    7.44955
H     15.70887    8.78729    7.91199
H     14.22860    8.00607    7.28470
C     14.65528    3.83169    9.96109
H     14.28026    3.64817    8.93899
H     15.75625    3.75351    9.89417
H     14.27954    3.05290   10.63897
