29
./345-af/FeO.out
C      0.26129    0.24138   -4.55863
H      0.50638    0.12976   -3.20194
O      0.58164    0.04006   -2.08483
H     -0.56212    0.96714   -4.59253
H      0.01507   -0.79844   -4.81388
H      1.25150    0.60361   -4.87038
O     -0.62200   -2.04268   -0.46642
O      0.01271    2.08661   -0.16999
P      2.26379   -0.47990    0.11841
O     -2.23893    0.37988   -0.91394
O     -0.68144   -0.14443    1.61025
H     -0.95589   -2.40822    0.36672
H     -0.04232    2.55688    0.67459
H      0.50858    2.65698   -0.77650
H      2.76549   -1.62066   -0.55520
H      2.76463   -0.70918    1.42950
H     -2.54789    1.25855   -1.17960
H     -2.81664   -0.25601   -1.36100
H      0.00724   -0.30821    2.26946
Fe    -0.13553   -0.02094   -0.50906
H      3.16507    0.51513   -0.33532
C     -0.22257   -3.08849   -1.36371
H      0.14166   -2.59677   -2.27436
H      0.58502   -3.69240   -0.91771
H     -1.08568   -3.73123   -1.60194
C     -1.88239    0.25759    2.29218
H     -1.73403    1.21765    2.81543
H     -2.66029    0.36901    1.52720
H     -2.18697   -0.51500    3.01730
