37
./353-h/FeO.out
C      0.52664    0.12496    5.61076
H      0.60941    0.38690    4.37802
O      0.62973    0.57170    3.14535
H      1.07917    0.96829    6.05007
H     -0.55725    0.12604    5.79259
H      1.01980   -0.85406    5.68958
O      0.22539   -1.72528    0.50709
C      1.18057   -1.88386   -0.50937
H      1.42458   -2.94937   -0.65022
C     -1.04083   -2.36442    0.57210
H     -1.04991   -3.32146    0.02693
C      2.38243   -1.10194   -0.00352
H      2.84807   -1.71113    0.78807
H      3.12183   -0.97448   -0.81060
C     -2.08916   -1.38845    0.08815
H     -3.10420   -1.77091    0.28781
H     -1.95012   -1.23398   -0.99518
C      1.91540    1.33630   -0.31256
H      2.92438    1.68727   -0.58833
H      1.42226    1.00716   -1.23669
C     -2.36524    1.04022    0.23983
H     -2.88569    1.56814    1.05665
H     -3.10038    0.82718   -0.55080
C     -1.19193    1.82763   -0.29228
H     -0.73546    1.28782   -1.13548
H     -1.51428    2.81896   -0.65776
C      1.13693    2.44562    0.35653
H      1.65551    2.78752    1.26632
H      1.04436    3.31138   -0.32113
N     -0.18687    1.95480    0.77024
Fe     0.10738    0.04821    1.63774
N      1.98990    0.17946    0.59341
O     -1.85531   -0.17926    0.79757
H      2.63780    0.39650    1.35511
H     -0.54646    2.55591    1.51740
Br     0.52284   -1.28118   -2.23326
Br    -1.25832   -2.68821    2.46297
