25
./3537-c/FeO.out
C      0.58782    0.08341   -4.52541
H      0.40067   -0.14463   -3.16772
O      0.25200   -0.29994   -2.05163
H     -0.23753    0.77367   -4.74920
H      0.47962   -0.94562   -4.89697
H      1.60195    0.50634   -4.54383
N     -0.21909   -2.15216    0.13823
O      0.42194    2.04291   -0.36005
N      2.29334   -0.37511    0.03037
N     -2.07632    0.24138   -0.39780
O     -0.02537    0.37045    1.79796
H      0.49632   -2.53472    0.76433
H     -0.22250   -2.74354   -0.69825
H      0.42189    2.59779    0.43432
H      0.57429    2.62418   -1.11957
H      2.79194    0.52507    0.02532
H      2.70941   -0.92910   -0.73049
H     -2.29844    1.24320   -0.47458
H     -2.47332   -0.19810   -1.23932
H      0.65621    0.06580    2.41764
H     -0.87059    0.28213    2.26615
Fe     0.12212   -0.09121   -0.35711
H     -1.11714   -2.30432    0.60782
Cl    -3.01078   -0.35147    0.93746
Cl     2.75479   -1.16524    1.50374
