31
./3559-av/FeO.out
C      0.28320   -0.79050   -5.25646
H      0.77955   -0.15128   -4.50903
O      1.01750    1.13338   -2.05313
H      0.99824   -0.99694   -6.06609
H     -0.58722   -0.27004   -5.68408
H     -0.03620   -1.74960   -4.81984
N      2.91052    0.22779   -0.13345
H      3.18663   -0.44048    0.59011
H      3.41052    1.09778    0.07507
Fe     0.83206    0.62641   -0.50410
H      3.31811   -0.10878   -1.01164
N      0.94697    2.67967    0.31972
H      1.26553    2.87247    1.27218
H      1.53524    3.23594   -0.30752
H      0.00528    3.07659    0.23190
P      0.66291   -1.89983   -1.10180
H      0.79214   -2.18566   -2.48230
H      1.65806   -2.77574   -0.58030
H     -0.49322   -2.65718   -0.78406
P     -1.37786    0.76121   -1.20013
H     -2.45308    0.42806   -0.34460
P      0.20711   -0.10561    1.71743
H     -1.16413   -0.06332    2.07942
H      0.51152   -1.43928    2.09702
H      0.76485    0.59125    2.82362
N     -1.57110   -0.32814   -2.43716
H     -0.90344   -0.26273   -3.20815
H     -2.51184   -0.57322   -2.74831
N     -1.63291    2.39461   -1.43850
H     -2.59156    2.73538   -1.53395
H     -1.00255    2.82805   -2.11474
