38
./373-i/FeO.out
C      0.50283    0.03259    5.56235
H      0.64869    0.25088    4.30663
O      0.73223    0.40896    3.10267
H      1.20768    0.75927    5.99105
H     -0.56148    0.25183    5.72546
H      0.79197   -1.02266    5.66188
N      0.29020   -1.91211    0.74231
C      1.15163   -1.87906   -0.44656
H      1.45696   -2.89457   -0.75082
C     -1.08759   -2.42942    0.76506
H     -1.18792   -3.43831    0.33055
C      2.37055   -1.05079   -0.05811
H      2.94652   -1.62971    0.68371
H      3.02551   -0.90817   -0.93254
C     -2.08483   -1.46545    0.15294
H     -3.10332   -1.72676    0.48510
H     -2.03778   -1.50817   -0.94613
C      1.93975    1.41441   -0.30329
H      2.95563    1.77763   -0.53501
H      1.47261    1.12494   -1.25326
C     -2.30399    1.00188    0.05242
H     -2.96077    1.44606    0.82051
H     -2.91725    0.74737   -0.82546
C     -1.16030    1.91085   -0.33871
H     -0.64210    1.48142   -1.20675
H     -1.53477    2.90934   -0.62483
C      1.14424    2.49987    0.39012
H      1.64617    2.80686    1.32153
H      1.07067    3.39007   -0.25767
N     -0.19018    1.99918    0.76139
Fe     0.10904    0.05912    1.57395
N      1.98874    0.22341    0.55833
O     -1.71263   -0.17766    0.60774
H      2.61226    0.41348    1.34612
H     -0.56715    2.58516    1.51177
H      0.80644   -2.45244    1.44631
Br     0.29165   -1.15257   -2.00752
Br    -1.45565   -2.56719    2.66742
