33
./385-m/FeO.out
C     11.65437    9.14183   15.04693
H     12.04830    8.43867   13.95321
O     12.43097    7.88577   13.02904
H     12.14328    8.56574   15.84496
H     12.05929   10.14298   14.84508
H     10.56418    9.02735   14.96287
Fe    13.44882    7.60685   11.67860
O     14.55296    7.40307    9.84328
O     12.35342    8.92853   10.46286
O     15.26806    7.87303   12.60192
N     12.82364    5.62404   11.60550
C     13.01631    4.69775   10.74738
H     12.57362    3.69340   10.86410
H     12.22288    5.36043   12.39533
H     11.45381    9.02104   10.81694
H     14.10520    7.62335    9.01345
H     13.63742    4.89436    9.86225
C     12.80285   10.21605   10.00448
H     13.79483   10.07465    9.55483
H     12.10889   10.59409    9.23608
H     12.86714   10.93208   10.84130
C     16.00447    9.07904   12.37532
H     17.07829    8.88416   12.53020
H     15.83584    9.37702   11.33193
H     15.66491    9.87099   13.06454
C     15.43831    7.33189   13.91915
H     15.06512    8.04173   14.67502
H     14.87109    6.39279   13.96640
H     16.50865    7.12748   14.08442
C     15.87736    6.92137    9.56804
H     15.84297    6.07706    8.86024
H     16.50291    7.72843    9.15277
H     16.30071    6.58293   10.52223
