42
./3910-p/FeO.out
C     -1.81291    2.88679    4.06287
H     -1.76110    2.63257    2.70569
O     -1.77230    2.44704    1.58992
H     -1.15508    2.09041    4.43815
H     -1.40720    3.90762    4.08619
H     -2.88499    2.77979    4.27513
Fe    -2.30778    2.31113   -0.04701
N     -3.61296    3.98040   -0.11721
N     -2.56979    1.66041   -2.12669
O     -0.26820    2.52821   -0.52917
O     -2.95642    0.35103    0.40810
C     -4.95677    3.40307    0.13708
H     -5.70527    4.19189   -0.06412
H     -5.11907    2.63271   -0.63743
C     -3.23191    4.97466    0.89405
H     -2.20291    5.30893    0.71620
H     -3.90953    5.84361    0.83570
H     -3.28772    4.53195    1.89159
C     -3.59444    4.58557   -1.47067
H     -3.99581    3.83262   -2.16519
H     -4.32890    5.41181   -1.47397
H     -2.07569    0.78121   -2.30444
H     -3.53514    1.48884   -2.41803
H     -2.20191    2.32630   -2.81060
H      0.18194    2.62012    0.32575
H     -2.72530    0.17761    1.33358
C      0.61130    1.92217   -1.48401
H      1.60999    2.38021   -1.40319
H      0.68660    0.83351   -1.31963
H      0.21930    2.13177   -2.48825
C     -4.06408   -0.47264    0.02280
H     -3.84453   -1.52545    0.26300
H     -4.98796   -0.15219    0.53134
H     -4.18946   -0.38274   -1.06395
C     -2.24463    5.09207   -1.91764
H     -1.44355    4.34902   -1.78061
H     -2.29253    5.35146   -2.98633
H     -1.94413    6.00484   -1.38413
C     -5.16984    2.83171    1.51745
H     -5.21583    3.61306    2.28863
H     -6.13766    2.30848    1.53499
H     -4.38807    2.11246    1.79996
