35
./4003-o/FeO.out
C     -1.26574    3.59852    3.63880
H     -1.78391    2.84647    2.60235
O     -2.17877    2.29477    1.70426
H     -0.61339    2.84885    4.10773
H     -0.77014    4.42067    3.10632
H     -2.18902    3.84663    4.17953
Fe    -2.50659    2.27677    0.01091
N     -4.05938    3.89887   -0.01170
N     -2.64194    1.97478   -2.17595
O     -0.57782    1.35935   -0.27434
N     -3.61701    0.48685    0.26144
C     -5.36624    3.43479   -0.49525
H     -6.07733    4.27632   -0.55183
H     -5.27169    2.98331   -1.49169
H     -5.76116    2.69160    0.21024
C     -4.16667    4.43392    1.35464
H     -3.20396    4.86840    1.64894
H     -4.94580    5.21070    1.39635
H     -4.41942    3.61231    2.03467
C     -3.46498    4.82973   -0.94265
H     -3.58798    4.45902   -1.96788
H     -2.12859    1.12356   -2.41985
H     -3.57915    1.83478   -2.56119
H     -2.21184    2.70947   -2.74422
H     -0.29374    1.12658    0.62376
H     -4.39783    0.52538    0.92649
C     -3.33574   -0.69684   -0.12405
H     -2.48433   -0.86121   -0.80200
H     -3.90912   -1.58010    0.20588
C      0.56794    1.77710   -1.02450
H      1.04206    2.66229   -0.56820
H      1.29698    0.95214   -1.08436
H      0.23226    2.02944   -2.03896
Br    -1.51819    4.76240   -0.61798
Br    -4.12780    6.60413   -0.91092
