25
./407-k/FeO.out
C     11.67543    8.30961   15.44572
H     12.13370    7.81675   14.24540
O     12.54088    7.47252   13.24702
H     12.11342    7.57093   16.13181
H     12.10849    9.31893   15.46298
H     10.59168    8.23868   15.27640
Fe    13.42515    7.57327   11.77650
O     14.63219    7.70504    9.83659
N     12.31116    9.15686   11.01042
N     15.28925    7.76662   12.72956
N     12.79963    5.67171   11.26788
C     12.64102   10.17620   10.30204
C     16.27166    8.55934   12.53366
C     13.09836    4.87903   10.30255
H     17.13377    8.61208   13.22093
H     15.37086    7.20641   13.58710
H     12.13054    5.28351   11.94287
H     11.34538    9.18830   11.35830
H     14.26113    7.81062    8.94818
H     15.53400    7.38044    9.69731
H     13.81212    5.19589    9.52898
H     13.65967   10.25914    9.89389
H     16.27313    9.22076   11.65341
Cl    12.47752    3.34116   10.10471
Cl    11.62595   11.45000    9.92485
