40
./4115-ad/FeO.out
C      8.15938   23.66229    8.51691
H      7.59360   23.11413    7.50821
O      7.06173   22.59607    6.53767
H      8.83020   22.86511    8.86776
H      8.65225   24.53420    8.06383
H      7.29939   23.88301    9.16547
Fe     6.35206   21.94872    5.16919
N      5.73064   20.05795    5.82105
C      5.67248   19.05440    4.73685
C      4.63994   19.33270    3.66384
C      4.16212   21.79141    3.64854
C      4.46240   23.26708    3.40130
N      5.81385   23.56073    3.94602
C      6.07343   20.73184    2.08445
C      7.42342   20.90013    2.65492
N      7.73522   21.30972    3.83388
H      4.68220   18.46717    2.98329
H      3.06625   21.67773    3.61554
H      4.32702   21.61435    4.73916
H      3.63054   19.29184    4.10849
H      6.01717   21.52368    1.30990
H      6.16253   19.83112    1.44845
H      3.76477   23.80636    4.06379
H      5.44721   18.06789    5.17854
H      6.68306   18.97500    4.31135
C      4.71396   20.61152    2.80525
H      6.41814   19.76759    6.52504
H      4.83808   20.07830    6.32704
H      8.74204   21.37785    4.01291
H      6.50534   23.61842    3.19298
H      5.84065   24.47547    4.40579
H      8.24044   20.67029    1.94584
C      3.71174   20.40776    1.65367
H      3.64314   21.29761    1.01437
H      4.00588   19.55690    1.02048
H      2.70925   20.19421    2.05295
C      4.27052   23.79497    1.99990
H      3.24387   23.60169    1.65650
H      4.42532   24.88492    1.97721
H      4.96239   23.33726    1.27761
