39
./4124-o/FeO.out
C     -2.30318    1.83730    4.16634
H     -2.18596    2.23391    2.83853
O     -2.15690    2.52082    1.75514
H     -2.34855    0.74469    4.06583
H     -1.37191    2.25210    4.57624
H     -3.23200    2.34325    4.46277
Fe    -2.37350    2.19433    0.06353
N     -3.56417    3.94712   -0.29260
N     -2.01575    1.61559   -1.96674
O     -0.37810    2.95885   -0.05791
N     -3.67122    0.61532    0.33898
C     -4.73393    3.82966    0.59263
H     -5.33770    4.75278    0.56140
H     -5.36475    2.99148    0.26450
H     -4.38603    3.65990    1.61915
C     -2.74392    5.09880    0.11367
H     -1.82080    5.13372   -0.47785
H     -3.31107    6.03678   -0.01855
H     -2.47265    4.98232    1.17029
C     -4.04245    4.09917   -1.68311
H     -4.68561    3.23232   -1.90542
H     -4.68771    5.00183   -1.70783
H     -1.09569    1.30510   -2.28213
H     -2.69893    0.98031   -2.38320
H     -2.19240    2.56819   -2.40146
H     -0.11540    3.09888    0.86466
H     -4.43109    0.86160    0.97300
C     -3.72315   -0.65305    0.03200
H     -4.57821   -1.26665    0.35948
C      0.76221    2.88235   -0.91067
H      1.50218    3.64474   -0.61779
H      1.23162    1.88385   -0.86740
H      0.43290    3.10105   -1.93612
N     -2.96200    4.13230   -2.63436
H     -2.46558    5.02448   -2.60597
H     -3.35067    4.07279   -3.57794
N     -2.81081   -1.31225   -0.67125
H     -2.92030   -2.30651   -0.84494
H     -1.93053   -0.88730   -0.93835
