31
./4254-av/FeO.out
C     -0.36968    0.76208   -5.32768
H      0.39680    0.81777   -4.53990
O      1.44996    0.24340   -2.05847
H     -1.37881    0.69270   -4.89528
H     -0.18025   -0.12357   -5.95232
H     -0.30910    1.65873   -5.96213
N      2.99999   -0.05920    0.27812
H      3.50506   -0.63481   -0.40337
H      3.11829   -0.51082    1.18829
Fe     1.02206    0.26794   -0.47941
H      3.52323    0.82086    0.32421
N      1.17208    2.47506   -0.32747
H      1.45063    2.94433    0.53756
H      1.81779    2.78951   -1.05747
H      0.25318    2.84828   -0.58915
P      0.70565   -2.30850   -0.30414
H      0.97763   -2.99741   -1.51209
H      1.52911   -3.05456    0.58729
H     -0.55533   -2.86352    0.03138
P     -1.12136    0.26990   -1.40184
H     -2.26972    0.12277   -0.58978
P      0.00816    0.31982    1.70330
H     -0.71360    1.49465    2.04496
H     -0.96013   -0.66502    2.02611
H      0.85315    0.21477    2.84110
N     -1.35776    1.80202   -2.03066
H     -2.31553    2.08537   -2.24815
H     -0.72449    2.04363   -2.79469
N     -1.20404   -1.07764   -2.37400
H     -0.45417   -1.13653   -3.06440
H     -2.10801   -1.35173   -2.76280
