30
./4279-as/FeO.out
C      2.38924    1.37981   -4.00577
H      1.73981    0.51621   -3.79831
O     -0.10932   -0.89602   -2.34829
H      2.86077    1.75451   -3.08356
H      1.80339    2.18540   -4.47377
H      3.17982    1.07710   -4.70821
P      2.36948   -1.14284   -0.80853
O      0.12387   -0.08338    1.24518
H      2.55704   -2.43394   -1.36055
H      3.20968   -1.20643    0.33384
H      0.62197    0.66516    1.60333
H     -0.81566   -0.09766    1.66831
Fe    -0.04278   -0.49347   -0.78073
H      3.15495   -0.37056   -1.70077
P     -0.54635    1.68714   -1.54400
H      0.54355    2.28049   -2.22843
H     -1.55434    1.67489   -2.53723
H     -0.97276    2.72537   -0.67406
P     -0.46661   -2.77916   -0.23032
H      0.05725   -3.63923   -1.22977
H     -1.81051   -3.26294   -0.16966
P     -2.64949   -0.32274    0.02207
H     -3.78837   -1.12243   -0.30019
H     -3.28867    0.94748    0.04860
N     -2.36784   -0.51820    1.72867
H     -3.05243   -0.05659    2.33582
H     -2.32857   -1.50371    2.00436
N      0.33880   -3.07321    1.18113
H      0.49896   -4.00015    1.57021
H      0.58026   -2.28064    1.76858
