32
./4289-n/FeO.out
C     11.74142    8.01264   15.37377
H     12.22152    7.73815   14.14833
O     12.67746    7.57662   13.09558
H     12.30884    7.30037   15.98953
H     11.98856    9.07511   15.50614
H     10.67715    7.78022   15.22512
Fe    13.65629    7.75459   11.70370
O     14.74334    7.62934    9.99637
O     12.39523    9.16141   10.89724
O     15.28598    8.42071   12.77449
O     13.22839    5.76844   11.18801
H     15.10215    8.56985   13.71420
H     12.58027    5.37493   11.79526
H     11.71077    9.46678   11.51204
H     15.31667    8.23577    9.51208
H     14.72091    6.64204    9.55326
C     12.54783   10.08290    9.80684
H     13.15009    9.57675    9.04201
H     11.55724   10.32347    9.38884
H     13.05262   11.00367   10.14462
C     16.70450    8.35929   12.55379
H     17.15848    7.59417   13.20485
H     16.85431    8.08218   11.50342
H     17.15455    9.34649   12.74921
C     13.05687    5.09060    9.85416
H     12.32745    5.69876    9.29308
N     12.60535    3.80462    9.97910
H     11.62048    3.58896    9.88063
H     13.20014    3.06995   10.34726
N     14.37079    5.26904    9.26516
H     15.05149    4.64451    9.70825
H     14.33707    5.01629    8.27358
