53
./4318-ai/FeO.out
C      6.98116   23.95246    8.35207
H      7.19490   23.44714    6.97849
O      7.42581   23.14064    5.95194
H      7.98575   23.76535    8.75394
H      6.73962   25.00455    8.15215
H      6.17308   23.34664    8.78207
Fe     6.36216   22.18534    4.94664
N      5.99327   20.45060    6.16055
C      5.84084   19.28821    5.26913
C      4.77699   19.49226    4.20529
P      5.09207   21.12789    3.49686
C      3.67017   22.17495    3.12935
C      4.23696   23.57702    3.25411
N      4.99873   23.77864    4.51294
C      6.13060   20.93850    2.01102
C      7.52753   20.66659    2.53605
N      7.90888   21.64093    3.57804
C      9.12322   21.18625    4.26659
C      8.14798   22.96369    2.98401
H      4.84621   18.71351    3.42928
H      3.27152   21.98050    2.12000
H      2.86518   21.96764    3.85090
H      3.76019   19.45291    4.62410
H      6.08322   21.88692    1.45345
H      8.26137   20.68547    1.71160
H      7.56143   19.65787    2.97132
H      8.92790   22.90163    2.20497
H      7.22573   23.33661    2.52028
H      8.46898   23.65661    3.77208
H      9.97208   21.15544    3.56238
H      9.34668   21.87841    5.08807
H      8.96594   20.17494    4.66134
H      4.92937   23.77637    2.42232
H      3.43608   24.33465    3.18762
C      4.08479   23.81320    5.66398
H      4.66703   23.94747    6.58347
H      3.38075   24.65741    5.56515
H      3.51020   22.88396    5.72694
C      5.70814   25.06813    4.43913
H      6.29097   25.21393    5.35498
H      6.38837   25.07602    3.58050
H      4.97872   25.88737    4.32299
H      6.82280   19.12679    4.80479
C      4.76816   20.72576    6.92033
H      3.92424   20.88721    6.24029
H      4.53317   19.87261    7.57806
H      4.92348   21.61977    7.53385
C      7.11215   20.25042    7.09730
H      6.89175   19.40247    7.76493
H      8.03066   20.03728    6.54164
H      7.25415   21.16188    7.68579
Br     5.51246   19.57696    0.82301
Br     5.46811   17.64163    6.20730
