28
./473-v/FeO.out
C     10.80546    7.41483   15.23007
H     11.34099    7.27282   14.07740
O     11.91350    7.19364   12.99448
H     11.60422    7.07884   15.90629
H     10.57930    8.49027   15.25380
H      9.93881    6.74365   15.13891
Fe    13.07897    7.48806   11.82785
N     14.60873    7.73066   10.11006
N     12.01772    8.47087   10.38223
O     14.67922    8.61833   12.67047
N     13.87522    5.60564   11.54304
C     14.13039    8.86801    9.34542
H     14.42195    9.77998    9.90007
C     12.62674    8.91005    9.34446
C     15.90921    8.00153   10.72367
H     16.48482    7.06824   10.87512
H     16.55345    8.62525   10.07303
C     15.75337    8.60912   12.08067
C     14.61712    6.43336    9.42169
H     15.52083    6.30908    8.79991
C     14.44307    5.33270   10.42778
H     12.11274    9.42376    8.51588
H     14.76151    4.31511   10.14564
H     16.65529    9.04104   12.56865
H     13.71153    4.81156   12.17148
H     10.99966    8.59243   10.39816
Br    14.95785    9.07723    7.62365
Br    13.14093    6.15922    8.21099
