23
./493-af/FeO.out
C      0.04392   -0.20534   -4.54043
H      0.36851   -0.01693   -3.25989
O      0.54261    0.14266   -2.12716
H     -0.39901    0.76261   -4.81269
H     -0.64167   -1.06115   -4.47857
H      1.04699   -0.41137   -4.94147
O     -0.50410   -1.89120   -0.30669
O      0.19520    2.25370   -0.16844
P      2.35054   -0.29105    0.12823
O     -2.16552    0.52531   -0.56274
O     -0.55845    0.17364    1.66091
H     -0.54438   -2.29308    0.58562
H      0.26643    2.67263    0.70315
H      0.63360    2.84187   -0.80296
H      3.27984    0.48107   -0.61169
H      2.76832   -1.60790   -0.18648
H     -2.51186    1.36888   -0.89416
H     -2.76026   -0.15692   -0.91226
H     -1.51232    0.31285    1.82303
Fe    -0.00927    0.17488   -0.51194
H      2.83306   -0.14051    1.45317
Br     0.08545   -3.23594   -1.43624
Br    -0.04706   -1.14376    2.86078
