31
./4954-av/FeO.out
C      2.97032   -0.07556   -4.36605
H      1.93325    0.21628   -4.13543
O     -0.08737    0.61114   -2.42256
H      3.11733    0.01847   -5.45214
H      3.15869   -1.12356   -4.08472
H      3.69489    0.59133   -3.87152
N      2.33298   -0.15084   -1.14804
H      2.52447   -0.06012   -2.15502
H      2.59909   -1.10514   -0.89475
Fe     0.28793    0.36308   -0.84852
H      2.99939    0.45890   -0.66656
N      0.78053    2.51925   -0.55547
H      1.07692    2.92565    0.33583
H      1.50857    2.75762   -1.23625
H     -0.03374    3.06167   -0.85882
P     -0.30582   -2.14765   -1.07261
H     -0.62623   -2.49507   -2.40692
H      0.70248   -3.12040   -0.81002
H     -1.38466   -2.74156   -0.37158
P     -2.03327    0.47686   -0.46951
H     -2.55291   -0.11343    0.70816
H     -2.52722    1.81626   -0.37054
P      0.46464    0.09508    1.51364
H     -0.16916    1.16154    2.20300
H      1.79386    0.27981    2.02088
N     -0.29940   -1.23105    2.19505
H     -0.42133   -1.21450    3.20967
H      0.04896   -2.14173    1.90082
N     -2.71858   -0.40598   -1.70112
H     -2.36606   -0.15878   -2.62758
H     -3.72682   -0.56770   -1.68886
