53
./5038-ai/FeO.out
C      6.66600   24.17798    8.64565
H      7.14822   23.34845    6.90110
O      7.45523   23.13218    5.98576
H      7.73070   24.07667    8.88548
H      6.31191   25.13530    8.24760
H      5.94907   23.52837    9.15954
Fe     6.40984   22.15494    4.92417
N      6.07119   20.42520    6.09749
C      5.63684   19.26473    5.28233
C      4.53282   19.62251    4.30621
P      5.09593   21.13981    3.48377
C      3.79167   22.29063    2.98060
C      4.39642   23.66330    3.18770
N      5.03785   23.79124    4.51989
C      6.14761   20.72466    2.06240
C      7.55482   20.54864    2.59246
N      7.93940   21.62599    3.50829
C      9.21912   21.33338    4.16933
C      7.98244   22.94636    2.84566
H      4.35099   18.80565    3.58927
H      3.50001   22.13786    1.92899
H      2.89543   22.12016    3.59628
H      3.57679   19.83292    4.81088
H      6.09543   21.56664    1.35401
H      5.80883   19.82286    1.52967
H      7.64718   19.60740    3.15114
H      8.99380   23.36799    2.90811
H      7.70741   22.86296    1.78679
H      7.30749   23.65152    3.34775
H     10.03883   21.38206    3.43485
H      9.37862   22.06393    4.97164
H      9.19461   20.31937    4.58516
H      5.17720   23.85446    2.43643
H      3.63813   24.45707    3.07612
C      4.05374   23.65287    5.60311
H      4.56473   23.76713    6.56687
H      3.28094   24.43425    5.51804
H      3.57941   22.66844    5.54998
C      5.73036   25.07854    4.62976
H      6.26935   25.11087    5.58224
H      6.44390   25.18575    3.80372
H      5.32115   18.44555    5.95264
H      6.52039   18.90449    4.73736
C      5.03084   20.78086    7.07303
H      4.08041   20.98254    6.56926
H      4.88104   19.95083    7.78501
H      5.34478   21.67062    7.63181
C      7.29655   20.07226    6.83347
H      7.09607   19.23154    7.51897
H      8.08000   19.77411    6.13028
H      7.64395   20.93963    7.40619
Br     8.77612   20.36088    1.10511
Br     4.57132   26.60754    4.53841
