58
./5384-az/FeO.out
C      7.99240   22.87820    8.72386
H      6.88108   22.96927    7.85551
O      6.01412   23.09459    7.12878
H      8.77046   22.36949    8.13932
H      8.17311   23.94299    8.92397
H      7.57881   22.30725    9.56596
Fe     6.30553   22.47855    5.52648
P      6.00822   20.28674    6.03619
C      5.65773   19.01683    4.76519
C      4.61630   19.28283    3.68295
C      4.25995   21.74891    3.62138
C      4.49095   23.15029    3.06788
P      5.08911   24.08875    4.50411
C      5.99705   20.66008    1.99107
C      7.37189   20.72674    2.64028
P      7.62373   22.22272    3.75373
C      9.22567   21.87323    4.53134
C      8.03828   23.56840    2.61611
H      4.62714   18.40115    3.02186
H      3.19826   21.61558    3.88055
H      4.73962   21.66882    4.63945
H      3.61796   19.28071    4.15033
H      5.90234   21.51106    1.29451
H      6.03416   19.77106    1.33862
H      7.49774   19.90405    3.35466
H      8.83802   23.19901    1.95588
H      7.18213   23.88531    2.00726
H      8.41554   24.42275    3.19597
H      9.95112   21.65331    3.73091
H      9.57060   22.75147    5.09877
H      9.14042   21.01280    5.20885
H      5.28124   23.16036    2.30567
H      3.58996   23.59594    2.61711
C      3.64357   24.34587    5.55448
H      3.97003   24.84811    6.47717
H      2.89977   24.96455    5.02634
H      3.19691   23.37955    5.82683
C      5.65810   25.73611    4.05866
H      6.00182   26.24383    4.97387
H      6.47846   25.70133    3.33269
H      4.81149   26.30041    3.63358
H      5.31768   18.15173    5.36378
H      6.62318   18.69676    4.34575
C      4.42891   20.30293    7.09387
H      3.64971   20.75594    6.45935
H      4.18133   19.23077    7.19754
C      7.22197   19.50475    7.12304
H      6.84345   18.52391    7.45471
H      8.17966   19.36194    6.60231
H      7.38424   20.15213    7.99530
C      4.71940   20.54076    2.81747
H      3.93814   20.41264    2.04619
N      8.44662   20.72336    1.71725
H      9.04327   19.90340    1.72814
H      8.20973   21.00147    0.77004
N      4.51029   20.93107    8.34001
H      4.72155   21.92697    8.29403
H      5.07112   20.45220    9.03744
