32
./539-v/FeO.out
C     10.92859    7.76306   15.19534
H     11.44185    7.27761   14.06445
O     11.96076    6.95346   13.08311
H     11.26138    6.99349   15.90588
H     11.41437    8.74449   15.27829
H      9.85800    7.76522   14.94692
Fe    13.05879    7.24991   11.82627
N     14.53816    7.60151   10.15558
N     11.92368    8.08653   10.29639
O     14.56635    8.56385   12.66792
N     13.81404    5.44158   11.51398
C     14.03847    8.73264    9.31513
H     14.29845    9.65302    9.87320
C     12.52934    8.71265    9.36126
C     15.82507    7.91021   10.75886
H     16.39456    6.98469   10.97145
H     16.48235    8.49982   10.09128
C     15.64492    8.57377   12.08730
C     14.54714    6.34332    9.42127
H     13.65659    6.30294    8.77143
H     15.42601    6.25052    8.76195
C     14.42157    5.18685   10.38165
H     11.99266    9.29103    8.58948
H     16.52564    9.05985   12.56310
H     13.65955    4.65667   12.14910
H     10.89989    8.15148   10.29176
N     14.63057    8.78370    8.03662
H     14.08424    8.39873    7.27188
H     15.03160    9.67768    7.77182
N     14.87799    4.00441    9.99556
H     14.74560    3.16790   10.55860
H     15.34664    3.88372    9.10314
