33
./584-z/FeO.out
C     11.04319    7.40212   15.44721
H     11.56555    7.09686   14.32971
O     12.10370    6.90714   13.24404
H     11.91953    7.57068   16.08856
H     10.45086    8.29439   15.20140
H     10.46466    6.49160   15.66108
Fe    13.04934    7.37967   11.94142
N     14.55077    7.71645   10.26960
F     12.08886    8.66165   10.92558
F     14.73757    8.25747   12.99284
N     13.41162    5.49407   11.25232
C     14.26923    8.96067    9.51389
H     14.45561    9.78800   10.21527
C     12.80383    9.05027    9.13749
C     15.85429    7.80786   10.95940
H     16.13277    6.79150   11.27756
H     16.63247    8.16561   10.25962
C     15.80405    8.69793   12.16774
C     14.54349    6.52552    9.41633
H     13.87461    6.65702    8.54679
H     15.53470    6.31687    8.97419
C     14.03125    5.33493   10.14526
H     14.17566    4.33819    9.69357
H     16.73033    8.61751   12.75797
H     13.05146    4.65111   11.71128
H     15.60860    9.75994   11.94983
H     12.28934    8.16418    8.74829
N     15.13380    9.11037    8.39600
H     14.82439    8.66981    7.53283
H     15.43648   10.06215    8.20823
N     12.28926   10.19590    8.78854
H     12.71451   11.08311    9.05338
H     11.35761   10.25119    8.37923
