34
./585-v/FeO.out
C     10.94039    7.65915   15.22156
H     11.49651    7.23710   14.11640
O     12.05572    6.95405   13.11177
H     11.38698    6.96844   15.95088
H     11.27237    8.70459   15.28028
H      9.87724    7.49849   14.99260
Fe    13.11694    7.30042   11.84493
N     14.63912    7.63546   10.18282
N     12.00837    8.27266   10.40110
O     14.52463    8.71413   12.63221
N     13.65027    5.42271   11.35040
C     14.12810    8.75922    9.39282
H     14.53152    9.71405    9.77945
H     14.46120    8.72122    8.33860
C     12.64609    8.88135    9.47353
C     15.91599    7.97490   10.83819
H     16.56147    8.56465   10.15835
C     15.60778    8.79121   12.06357
C     14.63987    6.39015    9.41795
H     13.85107    6.44908    8.64715
H     15.57856    6.22798    8.86212
C     14.27936    5.19243   10.24839
H     12.13841    9.53308    8.74126
H     16.41201    9.42592   12.49591
H     13.35609    4.59952   11.88340
H     10.99469    8.42445   10.42594
C     16.73155    6.78764   11.34326
H     17.08031    6.16780   10.50582
H     17.63384    7.15570   11.85617
H     16.16122    6.17359   12.05326
C     14.61355    3.85265    9.73283
H     14.32812    3.76623    8.67012
H     15.71090    3.72180    9.76196
H     14.14152    3.04624   10.31078
