30
./589-l/FeO.out
C     10.95171    8.49751   14.21798
H     11.78622    7.94762   13.26465
O     12.45407    7.49446   12.47710
H     11.27046    7.94285   15.11133
H     11.23517    9.55813   14.17399
H      9.96319    8.23976   13.81325
Fe    13.81228    7.75562   11.41068
O     15.34455    8.25512    9.79600
O     12.66785    9.15218   10.30284
N     15.25773    8.21835   12.74780
N     13.91092    5.93821   10.63271
C     16.50665    7.82430   12.74623
C     13.17518    4.86454   10.84502
H     13.41135    3.93003   10.31153
H     14.94854    8.63275   13.63068
H     14.66155    5.76637    9.96449
H     11.73799    9.05477   10.55839
H     15.99775    8.96519    9.86993
H     15.09043    8.24625    8.86095
H     16.88540    7.32929   11.84060
C     12.93056   10.52346    9.98455
H     13.96660   10.58121    9.62751
H     12.25570   10.85619    9.17887
H     12.80833   11.16957   10.87091
N     17.38825    7.95520   13.72327
H     17.16094    8.39406   14.61254
H     18.33804    7.61123   13.61247
N     12.15245    4.82687   11.66819
H     11.91511    5.67980   12.18915
H     11.62044    3.97243   11.79983
