33
./589-z/FeO.out
C     10.80630    7.69799   15.04086
H     11.50589    7.15759   14.11760
O     12.20421    6.76652   13.19865
H     11.57027    7.97445   15.78130
H     10.30881    8.53141   14.52577
H     10.16101    6.84886   15.31095
Fe    13.23512    7.14987   11.93387
N     14.57748    7.59352   10.26281
F     12.07209    8.49063   10.65489
F     14.83799    8.21369   12.92741
N     13.69291    5.34706   11.36118
C     14.13548    8.81970    9.50216
H     14.38392    9.66082   10.16614
C     12.62442    8.78238    9.38101
C     15.91072    7.78062   10.86580
H     16.28288    6.79111   11.17498
H     16.61664    8.18135   10.11452
C     15.86710    8.68629   12.06464
C     14.58699    6.40734    9.41030
H     13.75665    6.46310    8.68736
H     15.51215    6.33832    8.81541
C     14.34118    5.17032   10.23132
H     12.22970    9.76263    9.07405
H     16.80991    8.65024   12.63216
H     13.44356    4.51989   11.90654
H     15.61871    9.73510   11.83947
H     12.25738    8.00506    8.69015
N     14.80850    8.96528    8.27314
H     14.29657    8.67375    7.44492
H     15.24407    9.86879    8.11670
N     14.72569    4.00185    9.74834
H     14.51575    3.12648   10.22307
H     15.22887    3.93336    8.86837
