28
./599-ah/FeO.out
C      1.07862   -0.03686   -4.37392
H      0.42917   -0.11380   -3.13266
O     -0.03300   -0.19167   -2.11534
H      0.22517    0.27151   -4.99432
H      1.42663   -1.07180   -4.49679
H      1.84928    0.72201   -4.18206
O     -0.60121   -2.02997   -0.10324
O      0.50155    2.08873   -0.39080
P      2.36049   -0.73542   -0.23154
P     -2.50271    0.57739   -0.25306
O     -0.14999    0.08947    1.83611
H     -0.35488   -2.40208    0.76034
H      0.55822    2.72100    0.33953
H      0.52700    2.60807   -1.20816
H      3.22017   -0.04780   -1.12540
H      2.49925   -2.06460   -0.70869
H     -2.91676    1.80497    0.31792
H     -3.11119    0.67201   -1.53472
H      0.55169    0.04193    2.51163
Fe    -0.06818    0.02285   -0.40436
H      3.19797   -0.79026    0.91606
H     -3.36862   -0.34652    0.37780
N     -0.15176   -2.98657   -1.05688
H     -0.94226   -3.63516   -1.17258
H     -0.12213   -2.42890   -1.91838
N     -1.39527    0.41875    2.39457
H     -1.28775    1.28827    2.92900
H     -1.64809   -0.31799    3.06318
