59
./6025-am/FeO.out
C      7.70709   23.69768    8.39762
H      7.49038   23.51809    7.02868
O      7.38499   23.43230    5.89210
H      8.67022   23.19038    8.54260
H      7.74471   24.79311    8.46488
H      6.84813   23.23394    8.89868
Fe     6.34984   22.35708    4.99713
P      5.99997   20.54429    6.33968
C      5.79915   19.12223    5.20183
C      4.80825   19.49481    4.11314
P      5.16413   21.19051    3.50294
C      3.59437   21.99790    3.03440
C      3.89038   23.48279    2.91953
P      4.86676   23.95952    4.39215
C      6.09919   20.96662    1.94547
C      7.49679   20.51253    2.31796
P      8.06014   21.60123    3.67375
C      9.53069   20.87352    4.41373
C      8.54489   23.17649    2.89347
H      4.81978   18.78182    3.27315
H      3.19637   21.56325    2.10265
H      2.86564   21.79425    3.83535
H      3.78020   19.50917    4.51002
H      6.11999   21.94311    1.43537
H      5.57279   20.25536    1.28788
H      8.19509   20.55520    1.46707
H      7.49722   19.47399    2.68503
H      7.62549   23.56022    2.42016
H      8.75938   23.84981    3.74092
H     10.32738   20.76029    3.66242
H      9.87303   21.53725    5.22197
H      9.28927   19.88466    4.82899
H      4.50430   23.70294    2.03084
H      2.97455   24.09249    2.84568
C      3.65310   24.16243    5.73151
H      2.96093   24.96465    5.41840
H      3.06929   23.22791    5.76281
C      5.61515   25.56850    4.09302
H      6.25978   25.80946    4.95051
H      6.23770   25.52648    3.18793
H      4.83354   26.33546    3.97113
H      5.48062   18.22590    5.75973
H      6.79694   18.91264    4.78461
C      4.44524   20.60962    7.27030
H      3.61193   20.84822    6.59514
H      4.25701   19.64040    7.76045
H      4.51060   21.39628    8.03570
C      7.26212   20.05561    7.53314
H      7.00518   19.08398    7.98478
H      8.23852   19.98758    7.03442
H      7.32591   20.81958    8.32024
C      9.69547   23.09418    1.91081
H      9.88566   24.09367    1.48807
H     10.62438   22.76409    2.39807
H      9.48235   22.41713    1.06995
C      4.29967   24.45402    7.06933
H      3.53516   24.50528    7.85940
H      5.02443   23.67164    7.32919
H      4.83671   25.41351    7.06134
