57
./604-be/FeO.out
C      8.63033   23.97911    7.68489
H      7.60503   23.69456    7.01418
O      6.59427   23.30513    6.35916
H      9.39655   23.32663    7.24737
H      8.73554   25.05183    7.46739
H      8.31085   23.72811    8.70605
Fe     5.85942   22.28297    5.26683
N      5.52517   20.42289    6.35258
C      5.79770   19.31798    5.19620
C      5.19116   19.78118    3.87926
N      5.30900   21.22086    3.56539
C      3.89807   21.74034    3.22387
C      3.87828   23.25804    3.27574
N      4.36616   23.80239    4.57233
C      6.18977   21.46017    2.40006
C      7.62135   20.99054    2.50991
N      8.40904   21.62441    3.57425
C      9.43155   20.73449    4.11105
C      8.94851   22.95309    3.26767
H      5.67359   19.17750    3.09863
H      3.27848   21.36166    4.04338
H      4.13220   19.49814    3.84367
H      6.16974   22.53315    2.18176
H      5.74195   20.94068    1.53596
H      8.09035   21.14100    1.52277
H      7.65206   19.90894    2.69003
F     10.19692   22.92086    2.83818
F      8.19884   23.51408    2.31873
F      8.89594   23.71173    4.36118
F     10.30228   20.35043    3.19072
F     10.06249   21.33128    5.10725
F      8.84158   19.61904    4.57393
H      4.50283   23.67797    2.47683
H      2.85238   23.60373    3.08326
C      3.24392   23.99883    5.54557
F      3.73549   24.16545    6.75075
F      2.50417   25.02930    5.19852
F      2.49821   22.89777    5.51622
C      5.11969   25.07586    4.33177
F      5.36370   25.69566    5.45469
F      6.26300   24.71052    3.74789
F      4.45535   25.86134    3.50882
H      6.88845   19.37866    5.14555
C      4.18914   20.29695    6.96375
F      3.30836   20.06952    5.98303
F      4.12873   19.30480    7.82454
F      3.86885   21.43192    7.56185
C      6.60226   20.33746    7.37305
F      6.80862   19.09133    7.75985
F      7.71816   20.78697    6.79523
F      6.31628   21.08714    8.41391
N      3.42699   21.21882    2.01140
H      2.53363   20.74069    2.04514
H      3.50053   21.81224    1.19095
N      5.40036   18.03635    5.48351
H      4.41542   17.79971    5.44119
H      5.94089   17.48819    6.14222
