40
./6050-r/FeO.out
C     -2.05703    2.87567    4.26874
H     -1.91107    2.59813    2.90885
O     -1.84492    2.38359    1.81077
H     -1.39617    2.10566    4.69044
H     -1.68679    3.90938    4.29907
H     -3.13621    2.73212    4.41305
Fe    -2.26915    2.29437    0.13919
N     -3.46880    4.03950   -0.01191
O     -2.76906    1.62789   -1.95124
N     -0.25765    2.32917   -0.36745
O     -2.81816    0.29502    0.53128
C     -4.87855    3.58204   -0.02014
H     -5.52550    4.46713   -0.16498
H     -5.00717    2.95939   -0.92077
C     -3.19083    4.93799    1.11963
H     -2.13049    5.22371    1.10705
H     -3.81048    5.84663    1.03193
H     -3.41230    4.43520    2.06445
C     -3.14310    4.73675   -1.26270
H     -3.37191    4.10505   -2.12907
H     -3.73417    5.66547   -1.34412
H     -2.07783    5.00629   -1.27045
H     -2.25193    0.90722   -2.33929
H     -3.56514    1.69317   -2.49697
H      0.26985    2.03936    0.46167
H     -2.59066    0.12332    1.45807
C      0.50744    2.68626   -1.34132
H      1.60005    2.61807   -1.18535
C     -3.82723   -0.62436    0.09776
H     -3.45864   -1.65774    0.20449
H     -4.75575   -0.49063    0.67703
H     -4.02334   -0.41959   -0.96137
C      0.07354    3.18907   -2.64882
H      0.48526    4.20612   -2.78974
H      0.55586    2.58876   -3.44206
H     -1.01290    3.19667   -2.78193
C     -5.29111    2.82223    1.21753
H     -5.36524    3.47172    2.10080
H     -6.28702    2.38369    1.05446
H     -4.59635    2.00095    1.45312
