58
./6074-ay/FeO.out
C      8.76295   23.48756   12.90782
H      8.72561   23.40491   11.81166
O      8.22427   22.57438    9.20563
H      9.29008   24.41226   13.18417
H      9.30017   22.63085   13.34245
H      7.74135   23.52466   13.31539
Fe     8.20187   21.34115    8.14155
P      8.02613   20.04186   10.09196
C      7.57368   18.28884    9.90110
C      6.42727   17.94680    8.96130
C      5.70600   20.04201    7.83938
C      5.34275   20.99090    6.67672
P      6.46351   22.42895    6.99816
C      7.48706   18.43304    6.62265
C      8.95577   18.85235    6.72844
N      9.12702   20.36172    6.64584
C     10.51727   20.77292    6.90769
C      8.72390   20.84641    5.31872
H      6.49228   16.86325    8.77520
H      4.79939   19.86869    8.44002
H      6.32322   20.62168    8.58188
H      5.47186   18.09871    9.48877
H      7.13812   18.79294    5.64747
H      7.55760   17.33862    6.52115
H      9.39486   18.48503    5.78165
H      9.31427   20.33133    4.54022
H      7.65154   20.65293    5.15792
H      8.93189   21.92131    5.24779
H     11.20662   20.31164    6.17822
H     10.59870   21.86626    6.80376
H     10.82979   20.48584    7.92084
H      4.32477   21.39098    6.87099
C      5.56893   23.41914    8.20587
H      6.24101   24.20162    8.58910
H      4.68487   23.87293    7.73031
H      5.25077   22.78955    9.04713
C      6.64703   23.47687    5.54372
H      7.39960   24.25577    5.74627
H      6.94669   22.89360    4.66411
H      5.67802   23.96796    5.35181
H      7.33412   17.96002   10.92906
H      8.47470   17.73296    9.60827
C      6.76395   20.78944   11.15826
H      6.03978   20.02256   11.46886
H      7.26164   21.21302   12.04211
H      6.25265   21.61170   10.64573
C      9.57842   20.10075   11.00796
H      9.44137   19.58530   11.97334
H     10.39809   19.61557   10.45794
H      9.82762   21.15662   11.18902
C      6.32883   18.66360    7.60938
H      5.51471   18.11278    7.10288
N      9.70956   18.25256    7.75953
H     10.69504   18.15135    7.53511
H      9.61590   18.71144    8.65637
N      5.49895   20.43779    5.36270
H      4.99948   19.55103    5.29115
H      5.07227   21.04927    4.66697
