59
./6075-am/FeO.out
C      7.20862   24.12472    8.33956
H      7.27264   23.66169    7.01669
O      7.42376   23.35240    5.92810
H      8.14183   24.70301    8.37623
H      6.29038   24.72459    8.38783
H      7.20044   23.21363    8.95038
Fe     6.38931   22.29427    5.01138
P      6.01975   20.43992    6.30359
C      5.81258   19.05424    5.12655
C      4.81130   19.46744    4.06189
P      5.16212   21.18270    3.50760
C      3.59043   22.01908    3.10879
C      3.91166   23.49887    3.00355
P      4.94277   23.94756    4.45001
C      6.06799   21.00148    1.92645
C      7.46420   20.51502    2.26500
P      8.06534   21.54868    3.64929
C      9.53840   20.78306    4.34300
C      8.55258   23.14396    2.91103
H      4.81365   18.78640    3.19573
H      3.14690   21.60624    2.18772
H      2.89269   21.81792    3.93808
H      3.78732   19.46857    4.46878
H      6.09714   21.99334    1.44757
H      5.52428   20.31948    1.25223
H      8.15143   20.57594    1.40626
H      7.45387   19.46453    2.59629
H      7.63231   23.54592    2.45561
H      8.77946   23.79186    3.77477
H     10.32285   20.68622    3.57668
H      9.89770   21.41707    5.16781
H      9.29257   19.78405    4.73034
H      4.50531   23.71670    2.10047
H      3.00733   24.12816    2.96083
C      3.78100   24.23991    5.80415
H      4.34729   24.56016    6.68974
H      3.06778   25.03085    5.52033
H      3.23456   23.31767    6.04396
C      5.71909   25.53596    4.10916
H      6.35959   25.79151    4.96640
H      6.34762   25.46183    3.21064
H      4.95124   26.31221    3.96126
H      5.49505   18.14241    5.65928
H      6.80471   18.85347    4.69257
C      4.44621   20.50150    7.22259
H      3.67215   20.76558    6.48331
H      4.22884   19.47491    7.56818
C      7.29200   19.93567    7.47798
H      6.98005   19.02954    8.02159
H      8.23025   19.74163    6.94030
H      7.46828   20.75346    8.19029
C      9.69368   23.08061    1.91570
H      9.88466   24.08964    1.51656
H     10.62514   22.73414    2.38635
H      9.46950   22.42571    1.06031
C      4.47087   21.48787    8.37218
H      5.16529   21.16802    9.16253
H      4.77666   22.48769    8.03633
H      3.47153   21.56658    8.82701
