35
./615-w/FeO.out
C     11.06110    7.41149   15.26081
H     11.45800    7.17161   14.03539
O     11.91160    7.02305   12.95010
H     11.90288    7.03478   15.85823
H     10.92024    8.50122   15.25260
H     10.14449    6.80366   15.27578
Fe    13.10066    7.28953   11.77918
N     14.63228    7.66019   10.18220
N     12.04811    8.30701   10.34583
F     14.62280    8.43428   12.81576
N     13.55668    5.38009   11.24747
C     14.18701    8.81249    9.36305
H     14.51641    9.72604    9.89273
C     12.69701    8.91369    9.42308
C     15.91997    7.92927   10.89027
H     16.63259    8.39132   10.17997
C     15.65763    8.94515   11.98333
C     14.64511    6.42649    9.39095
H     13.89735    6.50863    8.58064
H     15.60306    6.25260    8.87376
C     14.22102    5.23127   10.16397
H     12.18811    9.55792    8.68603
H     14.44036    4.23364    9.74599
H     16.54179    9.08639   12.62216
H     13.23227    4.52891   11.71700
H     11.03345    8.45344   10.36483
H     15.30782    9.92814   11.63232
C     16.55494    6.68492   11.47977
H     16.77591    5.91841   10.72514
H     17.52017    6.96520   11.92677
H     15.93864    6.24026   12.27329
C     14.75534    8.90469    7.95597
H     14.50787    9.88630    7.52406
H     15.85136    8.82414    7.97684
H     14.35558    8.13528    7.28036
