35
./625-w/FeO.out
C     10.94265    7.26029   15.19378
H     11.41366    7.06411   13.96035
O     11.91344    6.96070   12.91988
H     11.65142    6.67150   15.79248
H     11.00291    8.35238   15.29653
H      9.93749    6.83346   15.06346
Fe    13.09844    7.30702   11.75932
N     14.64312    7.69404   10.15070
N     12.14161    8.65186   10.54339
F     14.61691    8.42851   12.82192
N     13.67221    5.42466   11.26226
C     14.21894    8.85772    9.36847
H     14.81890    9.74799    9.62927
H     14.40361    8.74025    8.28825
C     12.80054    9.22001    9.60342
C     15.91782    7.97559   10.88753
H     16.62910    8.45385   10.18500
C     15.61817    8.98428   11.97733
C     14.69764    6.44656    9.35054
H     15.69263    6.33236    8.88445
C     14.41307    5.27311   10.22953
H     12.35064   10.00355    8.96900
H     14.76696    4.27968    9.90746
H     16.49943    9.17155   12.60821
H     13.42125    4.57945   11.78420
H     11.17332    8.96263   10.67253
H     15.21507    9.94447   11.62145
C     16.58723    6.75440   11.48651
H     16.82334    5.98378   10.74024
H     17.55057    7.06979   11.91468
H     15.99676    6.30515   12.29567
C     13.64469    6.34833    8.24531
H     13.87481    7.00998    7.39917
H     13.63496    5.32522    7.83805
H     12.63838    6.56003    8.63411
