29
./629-c/FeO.out
C      0.70836    0.22861   -4.44695
H      0.69128   -0.10189   -3.08944
O      0.65191   -0.34450   -1.99486
H      0.43619   -0.73916   -4.89086
H      1.75400    0.54356   -4.56970
H     -0.05178    1.02008   -4.49890
N     -0.31091   -2.19494   -0.07788
O      0.82754    1.96576   -0.14926
N      2.17819   -0.83554    0.32730
N     -1.91271    0.13580   -0.63090
O     -0.14462    0.19488    1.91357
H      0.62771   -2.64907   -0.17599
H      0.38884    2.65498    0.37104
H      1.21606    2.42226   -0.91089
H      2.90185   -0.11611    0.18731
H     -2.14826    0.69418   -1.45559
H     -2.19110   -0.84455   -0.84903
H      0.39325    0.73810    2.50794
H     -0.93967   -0.00941    2.42691
Fe     0.19683   -0.10516   -0.34220
H      2.14412   -1.02053    1.33371
H     -2.51328    0.47280    0.12499
H     -0.66562   -2.39462    0.86045
N     -1.28077   -2.58171   -1.02268
H     -1.53385   -3.56915   -0.91355
H     -0.86114   -2.47234   -1.94850
N      2.45197   -2.05001   -0.33435
H      3.36177   -2.43474   -0.06157
H      2.47329   -1.85190   -1.33716
