44
./6470-i/FeO.out
C      0.36786    0.18263    5.69517
H      0.51845    0.19974    4.43896
O      0.63093    0.20168    3.20109
H      0.69637    1.19106    5.98453
H     -0.70614   -0.01570    5.81844
H      1.03559   -0.63457    6.00299
N      0.33030   -1.93104    0.78322
C      1.08735   -1.71955   -0.45513
H      0.48019   -1.09873   -1.13338
H      1.28172   -2.66958   -0.98367
C     -1.02638   -2.47436    0.63786
H     -1.37183   -2.76653    1.64209
H     -1.03919   -3.37545   -0.00019
C      2.38776   -1.03590   -0.10752
H      2.97716   -1.69231    0.55062
H      2.99894   -0.86078   -1.00869
C     -1.94689   -1.42627    0.06731
H     -2.99721   -1.75409    0.14633
H     -1.73035   -1.21514   -0.99512
C      1.94862    1.36006   -0.30882
H      2.92091    1.74425   -0.66230
H      1.43018    0.96115   -1.19411
C     -2.33536    0.96268    0.35188
H     -2.80268    1.46511    1.21548
H     -3.12693    0.73736   -0.37890
C     -1.23289    1.79736   -0.25311
H     -0.81238    1.28660   -1.13373
H     -1.61316    2.77729   -0.59260
C      1.11576    2.50445    0.26240
H      0.91151    3.17511   -0.59185
N     -0.17045    1.95125    0.74692
Fe     0.25431    0.04330    1.57589
N      2.16062    0.23290    0.62099
O     -1.74492   -0.24617    0.84492
H     -0.51350    2.55171    1.50185
H      0.86767   -2.53941    1.40642
C      1.73654    3.33105    1.36932
H      1.74972    2.78752    2.32605
H      2.76315    3.62726    1.11204
H      1.15526    4.25531    1.51572
C      3.27401    0.46790    1.55382
H      4.22665    0.50570    0.99842
H      3.13315    1.41007    2.08679
H      3.30796   -0.34539    2.29022
