40
./6520-ad/FeO.out
C      8.68802   23.27358    8.45999
H      7.91674   22.78471    7.49699
O      7.24173   22.36218    6.64050
H      9.41417   22.45872    8.58893
H      9.06809   24.19325    7.99375
H      7.95668   23.40555    9.26985
Fe     6.22416   21.90837    5.37294
N      5.62113   20.00168    5.98467
C      5.59500   19.01377    4.88343
C      4.51488   19.26011    3.85037
C      4.04793   21.76179    3.77211
C      4.60796   23.16063    3.46985
N      5.24814   23.62867    4.72473
C      5.82749   20.66145    2.14348
C      7.19278   20.97631    2.64767
N      7.41737   21.48534    3.81956
H      4.53973   18.38895    3.17566
H      2.95234   21.78104    3.65883
H      4.12833   21.58208    4.86757
H      3.52498   19.21073    4.33742
H      5.65939   21.41657    1.34990
H      5.92407   19.73167    1.55596
H      5.42955   23.07992    2.74186
H      5.44358   18.00826    5.31345
H      6.59537   19.00961    4.42531
C      4.56597   20.53149    2.99681
H      3.80174   20.35703    2.22192
H      6.31419   19.71934    6.68616
H      4.72434   19.98591    6.48299
H      8.41008   21.67263    3.99083
H      5.86027   24.43550    4.56684
H      4.52942   23.95792    5.37986
C      8.31046   20.70215    1.71059
H      8.05974   21.03527    0.69040
H      9.25822   21.15850    2.02944
H      8.45087   19.60743    1.64367
C      3.58096   24.13922    2.94383
H      4.03085   25.12490    2.74755
H      3.15782   23.76853    1.99740
H      2.75119   24.26443    3.65896
