37
./6733-h/FeO.out
C      0.65105    0.19123    5.58833
H      0.68090    0.43028    4.30682
O      0.66796    0.56354    3.13009
H      1.45182    0.86150    5.93227
H     -0.37188    0.48911    5.85729
H      0.87132   -0.88391    5.63592
O      0.31410   -2.01197    0.76791
C      1.05601   -1.90406   -0.45746
H      0.46128   -1.37286   -1.21877
H      1.31709   -2.90772   -0.83138
C     -1.02776   -2.44339    0.76531
H     -1.13290   -3.52359    0.56736
C      2.28739   -1.12400   -0.06698
H      2.87567   -1.71528    0.65081
H      2.92149   -0.94083   -0.95054
C     -1.89040   -1.56249   -0.11472
H     -2.95616   -1.68759    0.13675
H     -1.74783   -1.80574   -1.18413
C      1.80083    1.32360   -0.26510
H      2.79372    1.67748   -0.58710
H      1.23282    1.06235   -1.16996
C     -2.23362    0.88872   -0.09886
H     -2.94160    1.02219    0.73923
H     -2.80663    0.75831   -1.03115
C     -1.24858    2.02201   -0.23657
H     -0.70409    1.92287   -1.18579
H     -1.76631    2.99348   -0.26648
C      1.08953    2.41685    0.51201
H      1.61462    2.60512    1.46161
N     -0.26521    1.98535    0.85991
Fe     0.06715   -0.00782    1.65170
N      1.90933    0.13780    0.59202
O     -1.42041   -0.25689    0.15332
H      2.57789    0.33681    1.33979
H     -0.59318    2.54807    1.64959
Br     1.13057    4.06860   -0.46592
Br    -1.52678   -2.09982    2.61821
