38
./6809-r/FeO.out
C     -2.02822    2.54661    4.43339
H     -2.40939    2.48497    3.09323
O     -2.66477    2.44193    2.00385
H     -1.78736    3.61337    4.53781
H     -2.95736    2.20918    4.91324
H     -1.18284    1.84564    4.45636
Fe    -2.25422    2.37039    0.32198
N     -3.49284    3.90639   -0.29141
O     -1.66216    1.37828   -1.37669
N     -0.26177    3.05407    0.58165
O     -3.64372    0.62739    0.32795
C     -4.90663    3.71227    0.26499
H     -5.23667    2.74333   -0.14077
H     -4.75600    3.60649    1.35010
C     -2.91269    5.13534    0.26555
H     -1.92421    5.32219   -0.17786
H     -3.57019    5.98794    0.02393
H     -2.82893    5.03562    1.35702
C     -3.53176    3.96750   -1.75608
H     -3.90356    3.01450   -2.15844
H     -4.20590    4.78198   -2.07030
H     -2.52729    4.17329   -2.15254
H     -2.27862    0.54457   -1.62337
H     -1.30042    1.77290   -2.18006
H     -0.13121    3.83159    1.23863
H     -3.94498    0.60841    1.25086
C      0.83175    2.55364    0.15076
H      1.81976    2.94373    0.44988
H      0.79309    1.69923   -0.54120
C     -3.53002   -0.70697   -0.16923
H     -2.70213   -1.23811    0.33403
H     -4.47740   -1.23879    0.03657
N     -3.22647   -0.59815   -1.57450
H     -2.77546   -1.45062   -1.91419
H     -4.07040   -0.46230   -2.13658
N     -5.75810    4.76412   -0.07842
H     -6.04882    5.39304    0.66056
H     -6.49688    4.57719   -0.74546
