38
./6819-ad/FeO.out
C      8.13894   23.63190    8.52193
H      7.43491   23.08432    7.60036
O      6.78704   22.57204    6.71078
H      8.66843   22.77480    8.96101
H      8.76739   24.34065    7.96494
H      7.36726   24.08522    9.15988
Fe     6.33369   21.85621    5.26031
N      6.09030   19.78620    5.80222
C      5.78237   18.90361    4.66893
C      4.61982   19.33886    3.79217
C      4.03881   21.88061    3.72150
C      4.53142   23.25623    3.29027
N      5.83464   23.52417    3.91144
C      5.96398   20.81976    2.15813
C      7.37101   20.78719    2.69737
N      7.67272   21.26964    3.87802
H      4.50661   18.52733    3.05493
H      2.96075   21.82633    3.49093
H      3.67430   19.30396    4.36179
H      5.89652   21.75045    1.56904
H      5.90902   20.02460    1.39809
H      4.56929   23.33761    2.19422
H      3.80244   24.01090    3.62550
H      5.56753   17.88394    5.03389
H      6.69597   18.82121    4.06335
C      4.68628   20.65756    3.00139
H      3.95272   20.50233    2.19378
H      6.96418   19.48404    6.24253
H      5.38906   19.68713    6.54127
H      8.66879   21.24143    4.10587
H      6.58379   23.59813    3.22351
H      5.83554   24.40856    4.42287
N      8.28617   20.29617    1.86011
H      9.27747   20.30653    2.08205
H      8.03121   19.94750    0.94251
N      4.22306   21.83147    5.17616
H      3.78931   22.63859    5.63311
H      3.76795   21.00990    5.57323
