39
./6942-j/FeO.out
C      0.59354    0.18747    5.58343
H      0.44438   -0.12452    4.38069
O      0.33033   -0.36499    3.14248
H      1.60876   -0.17180    5.80412
H      0.47575    1.28029    5.58278
H     -0.21507   -0.37073    6.07705
N      0.33472   -1.87798    0.74753
C      1.34194   -1.87512   -0.31410
H      1.70892   -2.89638   -0.51948
C     -0.99703   -2.45300    0.48494
H     -1.33335   -2.91159    1.42809
H     -0.94555   -3.25305   -0.27172
C      2.49234   -0.98299    0.12243
H      3.00376   -1.48005    0.96335
H      3.22516   -0.88340   -0.69476
C     -1.97527   -1.38071    0.04669
H     -2.99337   -1.80224   -0.01050
H     -1.71402   -1.02197   -0.95607
C      1.87470    1.39142   -0.38778
H      2.85731    1.77380   -0.71117
H      1.35866    1.00310   -1.27564
C     -2.42105    1.03141    0.36893
H     -2.82524    1.65775    1.18085
H     -3.24778    0.84761   -0.33723
C     -1.28098    1.75558   -0.32261
H     -0.85318    1.12830   -1.11985
H     -1.63475    2.69183   -0.78748
C      1.06179    2.50979    0.22809
H      0.95531    3.35698   -0.47103
N     -0.24023    2.00546    0.68599
Fe     0.10128    0.08506    1.54423
N      2.00731    0.31342    0.59822
N     -1.93327   -0.22849    0.95974
H      2.61742    0.65411    1.34746
H     -0.59735    2.67075    1.37933
H      0.75039   -2.36241    1.54856
H     -2.46974   -0.44565    1.80332
Cl     1.88467    3.11006    1.68057
Cl     0.63582   -1.31956   -1.84194
