36
./7038-p/FeO.out
C     -1.25566    2.96097    3.67633
H     -1.74714    2.19337    2.27611
O     -1.94603    1.71833    1.39468
H     -0.56859    2.17759    4.01988
H     -0.84082    3.87134    3.22762
H     -2.26199    2.99499    4.11268
Fe    -2.46907    2.34701   -0.21232
N     -3.89981    3.89660   -0.13891
N     -1.73819    1.50582   -2.03661
O      0.29440    1.03119    0.17991
O     -3.83739    0.71534   -0.22281
C     -5.10100    3.38182    0.52980
H     -5.46718    2.50277   -0.01176
H     -4.83815    3.10582    1.56095
C     -3.34612    5.05286    0.58737
H     -2.49617    5.47164    0.03604
H     -4.12676    5.82612    0.68507
H     -3.02666    4.74041    1.59078
C     -4.13796    4.21289   -1.55634
H     -4.54537    3.33069   -2.07253
H     -4.87295    5.03123   -1.64534
H     -3.19553    4.53387   -2.02438
H     -0.92115    0.93674   -1.78303
H     -2.37014    0.88971   -2.55520
H     -1.38998    2.20164   -2.70304
H     -0.41321    0.99361    0.87517
H     -3.75226    0.22400    0.60957
C      0.92715    2.18243    0.28789
H      1.10818    2.57522    1.30064
H      1.77284    2.28144   -0.40770
C     -4.59441   -0.03379   -1.17794
H     -4.03909   -0.92922   -1.50628
H     -5.56006   -0.33878   -0.74204
H     -4.79040    0.62401   -2.03665
Br    -0.30327    3.80395   -0.42802
Br    -6.54723    4.63743    0.60842
