31
./714-at/FeO.out
C      1.16428   -1.53454   -4.27740
H      0.81099   -0.67213   -3.36681
O      0.50940    0.19606   -2.55628
H      1.51995   -0.87015   -5.07779
H      0.22700   -2.06157   -4.50358
H      1.94284   -2.14849   -3.80416
P      2.36549   -0.02877   -0.74187
H      2.65001   -1.39010   -1.05472
Fe     0.18048    0.33253   -0.85242
P      0.76882    2.68223   -0.31983
H      1.98102    3.11817    0.27970
H      0.87697    3.38314   -1.54958
H     -0.13022    3.55789    0.35306
P     -0.61023   -2.05449   -1.08285
H     -1.49146   -2.20215   -2.18611
H      0.39633   -2.97119   -1.48932
H     -1.29184   -2.90095   -0.16044
P     -2.03595    1.03345   -0.79268
H     -2.34494    2.04309   -1.74319
H     -3.08874    0.11612   -1.05579
H     -2.53303    1.64720    0.38730
P      0.21028   -0.28809    1.40058
H     -1.06479   -0.53554    1.97905
H      0.89145   -1.47920    1.75297
H      0.75481    0.62419    2.34185
N      3.14446    0.05671    0.73151
H      3.30987    0.97809    1.13070
H      3.91194   -0.58755    0.91629
N      3.09976    1.04858   -1.76762
H      2.60914    1.24831   -2.63774
H      4.11700    1.05905   -1.84274
