23
./719-g/FeO.out
C     -4.31147    0.75777    4.36538
H     -3.62656    1.01912    3.29557
O     -3.07372    1.27608    2.25743
H     -4.00633   -0.28124    4.55864
H     -3.90689    1.51198    5.05647
H     -5.35328    0.90411    4.04714
Fe    -2.94587    1.69546    0.62021
O     -3.78765    3.57728    0.78371
H     -3.85602    4.26465    0.10322
O     -2.49283    2.20953   -1.40396
H     -1.54533    2.22618   -1.62838
O     -0.04956    1.81538   -0.30810
O     -3.98354    0.06723   -0.13156
H     -4.41777   -0.59676    0.42671
H     -4.03810   -0.24562   -1.04775
H     -4.17639    3.93227    1.59848
H     -2.99249    2.35929   -2.21988
N     -0.82085    1.55606    0.84123
H     -0.47996    2.21418    1.56467
H     -0.57010    0.61591    1.18799
N      1.15010    2.39341    0.10896
H      1.89072    1.70585   -0.07727
H      1.29879    3.20310   -0.50152
