28
./723-v/FeO.out
C     10.87994    7.46604   15.24423
H     11.41511    7.19607   14.10780
O     11.97947    7.02250   13.04534
H     11.41909    6.77792   15.91096
H     11.10305    8.53395   15.37541
H      9.82823    7.21436   15.04413
Fe    13.08530    7.35734   11.82748
N     14.64166    7.68238   10.14048
N     12.03260    8.43560   10.44526
O     14.55568    8.69695   12.63929
N     13.67709    5.46813   11.36164
C     14.14218    8.82494    9.36443
H     14.56280    9.75969    9.78253
H     14.47130    8.79905    8.31139
C     12.66248    8.96920    9.46796
C     15.90910    8.05293   10.77847
H     16.57764    8.61773   10.10311
C     15.63460    8.79614   12.07028
C     14.71377    6.40538    9.40669
H     15.68804    6.26766    8.90851
C     14.38897    5.25738   10.31852
H     12.15509    9.59602    8.71483
H     14.71750    4.25144   10.00961
H     16.45976    9.39692   12.51059
H     13.41938    4.64283   11.91199
H     11.02314    8.60930   10.48324
Br    16.97324    6.57126   11.41778
Br    13.40088    6.24687    7.99806
