59
./7375-bd/FeO.out
C      7.09223   24.15275    8.44144
H      7.18560   23.64858    7.23036
O      7.22417   23.10770    6.18322
H      7.97965   23.71993    8.92248
H      7.13891   25.22483    8.20533
H      6.12171   23.77037    8.78150
Fe     6.49504   22.06361    5.07179
N      5.85966   20.16351    6.31152
C      5.71377   19.13851    5.19805
C      4.99887   19.74737    3.97263
N      5.28907   21.15553    3.58922
C      4.00580   21.87505    3.40208
C      4.14069   23.36002    3.16219
N      4.93428   24.05926    4.19328
C      6.10492   21.24865    2.36035
C      7.56313   20.99692    2.62410
N      8.09540   21.89730    3.66673
C      9.41182   21.38224    4.13067
C      8.25128   23.26169    3.14681
H      5.21795   19.09458    3.11534
H      3.46978   21.44895    2.53509
H      3.38808   21.68223    4.28534
H      3.91863   19.67794    4.13288
H      5.97549   22.25618    1.94855
H      5.72940   20.54922    1.59417
H      8.13733   21.12912    1.69061
H      7.72710   19.96352    2.95077
H      9.07718   23.28650    2.41538
H      7.33746   23.57757    2.64111
H      8.47092   23.95315    3.96611
H     10.03001   21.28000    3.21845
H      9.24881   20.36437    4.50534
H      4.62162   23.56097    2.20022
H      3.12785   23.78830    3.08703
C      4.20415   24.20073    5.44796
F      4.78001   25.06485    6.25252
F      2.93655   24.51979    5.27839
F      4.23744   22.98279    6.04775
C      5.48872   25.35268    3.73392
F      6.53081   25.67806    4.47813
F      5.88882   25.22746    2.46933
F      4.57805   26.30886    3.79271
H      5.01536   18.37525    5.57879
C      4.59094   20.20410    7.10483
F      3.57357   20.34181    6.25907
F      4.42903   19.07629    7.77266
F      4.59023   21.21842    7.94072
C      7.01906   19.94540    7.21799
F      7.05861   18.72549    7.71051
F      8.12504   20.16910    6.50139
F      6.99630   20.81426    8.20761
C      6.96876   18.37028    4.83404
H      6.69878   17.68517    4.01771
H      7.79354   19.00044    4.49208
H      7.33203   17.74957    5.66054
C     10.13107   22.22564    5.14768
H      9.51355   22.41297    6.03547
H     11.03272   21.68045    5.46590
H     10.46546   23.18848    4.73696
