33
./75-x/FeO.out
C     10.98556    7.28426   15.28591
H     11.37119    7.54682   14.13276
O     11.86648    7.77154   12.97585
H     11.09175    6.19157   15.34262
H     11.67676    7.86061   15.91723
H      9.95064    7.65642   15.25918
Fe    13.10370    7.75037   11.86456
N     14.66448    7.84665   10.22199
N     12.08853    8.42375   10.27901
O     14.76894    8.63815   12.82614
O     13.59996    5.70657   11.51215
C     14.21831    8.97915    9.37545
H     14.67248    8.90061    8.37062
C     12.71089    8.91343    9.25902
C     15.96506    8.02655   10.86060
H     16.44966    7.04364   11.02466
H     16.69231    8.58976   10.24851
C     15.84108    8.60569   12.23210
C     14.57336    6.56799    9.51904
H     13.80170    6.61283    8.72603
H     15.50449    6.28956    8.98985
C     14.12354    5.46885   10.42988
H     14.24140    4.41473   10.09386
H     16.76085    8.97129   12.73969
H     11.06485    8.45049   10.25069
C     14.55387   10.34422    9.96103
H     15.63876   10.51305   10.00508
H     14.14657   11.13279    9.31248
H     14.11241   10.47743   10.95941
C     12.05252    9.44393    8.05341
H     12.50175   10.40285    7.74757
H     12.24320    8.74654    7.21552
H     10.96712    9.56197    8.17768
