45
./7780-j/FeO.out
C      0.49289    0.33404    5.62521
H      0.38787    0.03305    4.39713
O      0.28329   -0.23482    3.19952
H      1.58063    0.40665    5.76535
H     -0.05585    1.28295    5.70374
H      0.01511   -0.52436    6.11824
N      0.32056   -1.95678    0.75711
C      1.27221   -1.85343   -0.35137
H      0.77038   -1.35277   -1.19377
H      1.57981   -2.84940   -0.71547
C     -1.01467   -2.46041    0.41371
H     -1.45914   -2.88464    1.32826
H     -0.96096   -3.27217   -0.33129
C      2.47771   -1.07271    0.11745
H      2.97762   -1.62428    0.92837
H      3.21589   -0.95616   -0.69448
C     -1.86800   -1.32046   -0.09519
H     -2.88576   -1.67204   -0.33760
H     -1.44790   -0.90320   -1.02387
C      1.82398    1.21890   -0.41312
H      2.77431    1.54137   -0.87580
H      1.24479    0.71555   -1.20260
C     -2.41282    1.03787    0.44232
H     -2.86520    1.55835    1.29831
H     -3.21482    0.90118   -0.30255
C     -1.28847    1.85553   -0.15440
H     -0.89875    1.35669   -1.05561
H     -1.66064    2.84527   -0.47423
C      1.06935    2.41987    0.10926
H      1.68472    2.97670    0.82784
H      0.84874    3.11935   -0.71481
N     -0.17079    2.00754    0.79399
Fe     0.14259    0.02129    1.54429
N      2.07814    0.23944    0.65713
N     -1.89431   -0.25410    0.91276
H      0.72652   -2.52999    1.50042
H     -2.43914   -0.57302    1.71744
C      3.04575    0.72597    1.64690
H      3.13980   -0.01412    2.45235
H      4.03205    0.89448    1.18114
H      2.69662    1.66677    2.09060
C     -0.50235    2.90899    1.90397
H     -0.70076    3.93103    1.53731
H     -1.38910    2.54480    2.43912
H      0.33489    2.93516    2.61480
