33
./80-au/FeO.out
C      2.59877    1.60500   -4.56150
H      1.97776    0.77272   -4.19705
O      0.05996   -0.57071   -2.25627
H      1.96418    2.46928   -4.81035
H      3.12047    1.28404   -5.47527
H      3.35336    1.89801   -3.81511
N      2.41318   -0.94810   -0.65228
H      2.56401   -1.41627    0.24420
Fe     0.26723   -0.27488   -0.67456
P      0.49602    2.07518   -1.26706
H      1.04784    3.05882   -0.40527
H      1.22858    2.25850   -2.46350
H     -0.74581    2.66893   -1.60121
P     -0.30708   -2.64724   -0.02675
H     -0.75611   -3.40141   -1.14038
H      0.67573   -3.52130    0.51259
H     -1.36376   -2.87866    0.89405
P     -2.30200   -0.00840   -0.43748
H     -2.98531   -1.03459   -1.13998
H     -3.03053   -0.00095    0.78327
H     -2.85754    1.13190   -1.07393
P      0.38699    0.25645    1.67183
H      1.66152    0.22632    2.29847
H     -0.05234    1.54413    2.07552
H     -0.35136   -0.55208    2.57461
C      2.69778   -1.89916   -1.72944
H      2.50575   -1.41985   -2.69788
H      3.74891   -2.23250   -1.68809
H      2.04272   -2.77684   -1.64303
C      3.26801    0.23635   -0.70457
H      3.12395    0.74394   -1.66795
H      3.02591    0.92274    0.12095
H      4.33570   -0.03722   -0.62605
