34
./80-v/FeO.out
C     11.15562    7.49832   15.37049
H     11.49608    7.42807   14.10942
O     11.90614    7.39489   12.99636
H     12.12540    7.57716   15.88041
H     10.53516    8.40570   15.36807
H     10.61892    6.54648   15.49123
Fe    13.11980    7.56302   11.83501
N     14.64354    7.80506   10.16175
N     12.06673    8.36858   10.30462
O     14.79154    8.47413   12.80251
N     13.62353    5.61252   11.36832
C     14.17857    8.98132    9.39409
H     14.61121    8.96272    8.37667
C     12.66832    8.91670    9.30378
C     15.95050    7.95193   10.78877
H     16.42497    6.95802   10.90966
H     16.67559    8.53276   10.19049
C     15.85008    8.47517   12.18478
C     14.54791    6.57133    9.37941
H     13.76100    6.67403    8.60915
H     15.47336    6.35203    8.81476
C     14.14791    5.40794   10.21920
H     14.28387    4.39322    9.80624
H     16.77881    8.82819   12.68523
H     13.32753    4.77832   11.88577
H     11.04310    8.39262   10.28468
C     14.52406   10.31232   10.04748
H     14.09474   10.39088   11.05647
H     15.60976   10.47704   10.08833
H     14.11068   11.13460    9.44660
C     11.99030    9.51464    8.13960
H     12.42568   10.49586    7.89019
H     12.17610    8.87369    7.25734
H     10.90571    9.61470    8.28460
