37
./8084-o/FeO.out
C     -1.34471    2.49075    3.86942
H     -2.13128    2.48082    2.69934
O     -2.72251    2.46963    1.74884
H     -0.89364    3.49268    3.84270
H     -2.14066    2.34786    4.61391
H     -0.67740    1.63627    3.69523
Fe    -2.70003    2.25047    0.02942
N     -3.88656    3.97119   -0.35945
N     -2.08727    1.79108   -2.01234
O     -0.47700    3.05907    0.09712
N     -3.97513    0.55070    0.13438
C     -5.13247    3.80263    0.40743
H     -5.77020    4.69514    0.28597
H     -5.68049    2.92574    0.03637
H     -4.89173    3.66549    1.46893
C     -3.11862    5.12076    0.14186
H     -2.17347    5.20962   -0.41345
H     -3.69445    6.05184    0.00033
H     -2.92042    4.98394    1.21286
C     -4.18579    4.13972   -1.78563
H     -4.73716    3.26657   -2.16172
H     -4.82049    5.03049   -1.93566
H     -3.25780    4.28508   -2.35517
H     -1.68942    0.84745   -2.04640
H     -2.81019    1.81250   -2.73519
H     -1.35370    2.41722   -2.35584
H     -0.42607    3.48022    0.96924
C     -4.70268    0.15889   -0.86044
H     -4.65830    0.71955   -1.79559
H     -5.36280   -0.71850   -0.79031
C      0.40480    1.98320    0.06018
H      1.25413    2.09224    0.75173
H      0.75762    1.82931   -0.96872
Br    -0.53258    0.33254    0.55775
N     -3.89825   -0.10938    1.27712
H     -3.60070    0.47185    2.05615
H     -4.59002   -0.83685    1.46249
