38
./814-ad/FeO.out
C      8.04728   23.69585    8.55391
H      7.36881   23.14195    7.64166
O      6.72954   22.59505    6.72619
H      8.34807   22.84411    9.18036
H      8.86247   24.18456    8.00198
H      7.31390   24.37599    9.01011
Fe     6.33422   21.84740    5.28258
N      6.22590   19.76430    5.75488
C      5.88093   18.90009    4.61467
C      4.65703   19.31719    3.82016
C      3.94459   21.82271    3.79011
C      4.43347   23.21839    3.36820
N      5.75858   23.50049    3.93417
C      5.89897   20.85346    2.16602
C      7.30048   21.01497    2.61965
N      7.68939   21.36650    3.79042
H      4.51558   18.50847    3.08510
H      3.74060   19.27011    4.43264
H      5.73942   21.68659    1.45243
H      5.93454   19.98881    1.47659
H      4.42449   23.31269    2.27284
H      3.70523   23.95254    3.74849
H      5.72034   17.86700    4.96937
H      6.76236   18.85806    3.95818
C      4.64916   20.64087    3.03581
H      3.90886   20.45308    2.24359
H      7.12305   19.46639    6.15083
H      5.55694   19.63328    6.51917
H      8.70733   21.43953    3.88822
H      6.46458   23.64185    3.21148
H      5.75289   24.36302    4.48288
H      8.05352   20.83511    1.83043
N      2.53897   21.61324    3.63884
H      1.98116   22.35264    4.06548
H      2.24533   21.51711    2.66895
N      4.24550   21.75897    5.23663
H      3.82111   22.55063    5.72941
H      3.78956   20.92638    5.61667
