28
./834-s/FeO.out
C      0.22976   -0.09849   -4.30412
H      0.47461    0.06191   -2.94033
O      0.59292    0.13805   -1.82605
H     -0.12695    0.90487   -4.57604
H     -0.51226   -0.90810   -4.32722
H      1.24550   -0.35968   -4.63341
O     -0.34371   -2.12946    0.04671
O      0.65423    2.15323   -0.01409
N      2.05587   -0.63468    0.44947
O     -1.98440    0.07311   -0.68963
H     -1.14561   -2.48398   -0.37886
H      1.03851    2.62940   -0.77339
H      2.77555   -0.39199   -0.23557
H      1.95006   -1.67363    0.43673
H     -2.20258    0.33757   -1.59564
H     -2.76190    0.29876   -0.15801
Fe     0.14905    0.04073   -0.16376
H      2.40642   -0.36157    1.37010
N     -0.43452    0.36697    1.89677
H     -1.42895    0.34216    2.13514
H      0.01101   -0.26578    2.56594
H     -0.10490    1.32738    2.11608
N      0.67252    2.89307    1.16928
H      1.63504    3.20304    1.34494
H      0.09480    3.73030    1.03090
N      0.69235   -3.06650    0.07571
H      0.43411   -3.80247    0.74296
H      0.78349   -3.49544   -0.85219
