34
./835-v/FeO.out
C     10.86204    7.67039   15.20592
H     11.43220    7.28144   14.09536
O     12.00159    7.02504   13.08636
H     11.39093    7.04597   15.93986
H     11.08756    8.74510   15.23432
H      9.81625    7.39802   15.00391
Fe    13.08102    7.37671   11.83666
N     14.56652    7.70957   10.13823
N     11.93138    8.25259   10.36796
O     14.52063    8.74371   12.62054
N     13.80503    5.52705   11.47452
C     14.02172    8.79819    9.32911
H     14.38751    9.77123    9.70518
H     14.34938    8.75950    8.27452
C     12.53622    8.86111    9.41810
C     15.85901    8.02422   10.77068
H     16.26696    7.06052   11.14422
C     15.60829    8.76581   12.05579
C     14.59703    6.43455    9.42555
H     13.77477    6.40409    8.68915
H     15.52536    6.30027    8.84295
C     14.37095    5.26723   10.34454
H     11.99512    9.46965    8.67282
H     16.45536    9.31578   12.52171
H     13.60978    4.72107   12.07548
H     10.91246    8.36227   10.39880
C     16.91321    8.66401    9.88508
H     17.86805    8.72711   10.42907
H     17.08833    8.05598    8.98597
H     16.63798    9.68205    9.57428
C     14.76678    3.92269    9.88749
H     14.41184    3.74931    8.85656
H     15.87007    3.86778    9.83787
H     14.39633    3.12506   10.54611
