34
./840-v/FeO.out
C     11.04833    7.52434   15.25634
H     11.60760    7.22111   14.12023
O     12.16540    7.02798   13.08589
H     11.62034    6.89311   15.95099
H     11.22262    8.60619   15.33392
H     10.01106    7.21349   15.06629
Fe    13.22189    7.39755   11.82331
N     14.64746    7.73797   10.07383
N     12.02241    8.28155   10.40018
O     14.64574    8.71586   12.54358
N     13.85106    5.50604   11.35847
C     14.08036    8.84742    9.31042
H     14.45865    9.80833    9.70508
H     14.37735    8.83915    8.24619
C     12.59766    8.90832    9.44411
C     15.96011    8.04090   10.67636
H     16.35603    7.07315   11.04648
C     15.74446    8.80582   11.97593
C     14.65986    6.48075    9.32798
H     13.87186    6.48918    8.55190
H     15.60312    6.32107    8.77368
C     14.36656    5.31343   10.20318
H     12.03380    9.52974    8.72683
H     14.57386    4.30113    9.81478
H     13.63052    4.66975   11.90895
H     11.00481    8.38813   10.46501
C     16.98260    8.63613    9.72736
H     17.97850    8.64697   10.19102
H     17.06384    8.02927    8.81391
H     16.73360    9.66708    9.43853
C     16.84238    9.58247   12.57175
H     16.56943    9.94892   13.56977
H     17.76091    8.97161   12.61755
H     17.08951   10.43326   11.91110
