38
./848-i/FeO.out
C      0.46347    0.13274    5.65727
H      0.60479    0.14394    4.39811
O      0.70017    0.14565    3.15816
H      0.80364    1.13967    5.93882
H     -0.61090   -0.05742    5.79074
H      1.12940   -0.68914    5.95722
N      0.29961   -1.93157    0.82800
C      1.25817   -1.90419   -0.27610
H      0.75509   -1.44804   -1.14015
C     -1.05118   -2.41883    0.52185
H     -1.51004   -2.73612    1.47216
H     -1.01967   -3.29448   -0.14733
C      2.47517   -1.09983    0.13917
H      2.97722   -1.59379    0.98608
H      3.19399   -1.04838   -0.69426
C     -1.92572   -1.33041   -0.06677
H     -2.98830   -1.62182   -0.03099
C      1.82604    1.24143   -0.47614
H      2.77362    1.53825   -0.95818
H      1.19407    0.78576   -1.25493
C     -2.34661    1.06658    0.37379
H     -2.80964    1.43538    1.30371
H     -3.13658    0.89586   -0.37303
C     -1.27860    1.99214   -0.15941
H     -0.92421    1.60535   -1.12494
H     -1.69237    3.00080   -0.33310
C      1.14032    2.44457    0.13895
H      1.77765    2.88114    0.92493
H      0.97774    3.22806   -0.61986
N     -0.13229    2.03565    0.76415
Fe     0.20591    0.07317    1.56004
N      2.05457    0.23972    0.57298
O     -1.70542   -0.18101    0.71112
H      2.72465    0.60122    1.25678
H     -0.34422    2.66739    1.54101
H      0.69428   -2.50780    1.57902
Br     1.76850   -3.66612   -0.82509
Br    -1.58138   -1.00581   -1.95674
