34
./853-r/FeO.out
C     -3.28575    1.99615    4.11638
H     -2.77064    2.33104    2.87558
O     -2.42523    2.56394    1.82669
H     -2.62936    1.16050    4.39679
H     -3.11242    2.94423    4.64497
H     -4.32997    1.75121    3.87913
Fe    -2.49854    2.31318    0.12797
N     -3.42693    4.27619   -0.17845
O     -2.63536    1.63851   -1.91329
N     -0.46379    2.74072   -0.16195
O     -2.61216    0.11139    0.47722
C     -4.67726    4.07313    0.53374
H     -5.48405    4.74889    0.20620
H     -4.51213    4.13850    1.61589
C     -2.62001    5.32459    0.46520
H     -1.68089    5.44029   -0.09314
H     -3.15481    6.28978    0.44909
H     -2.40106    5.03318    1.50060
C     -3.65501    4.57219   -1.59666
H     -4.30616    3.80279   -2.03337
H     -4.14257    5.55566   -1.71089
H     -2.69022    4.60348   -2.12218
H     -3.31188    0.93311   -2.05766
H     -2.64703    2.18477   -2.71088
H     -0.02818    3.26641    0.60455
H     -3.11744   -0.06723    1.28568
C      0.35679    2.33414   -1.05264
H      1.43674    2.55651   -1.00311
H     -0.01571    1.73901   -1.89969
C     -2.69746   -0.98026   -0.38798
H     -1.86637   -0.92303   -1.10269
H     -2.68315   -1.93575    0.15883
Br    -5.26126    2.25407    0.17727
Br    -4.33710   -0.96649   -1.44044
