53
./8563-ap/FeO.out
C      6.06725   23.33848    9.02170
H      6.35065   23.22446    7.96605
O      7.34131   23.28686    5.73399
H      4.97690   23.44883    9.12094
H      6.40181   22.46740    9.60406
H      6.55359   24.23750    9.42755
Fe     6.40096   22.33297    4.79442
P      6.15654   20.63347    6.31055
C      5.99947   19.36697    4.99036
C      4.92192   19.84875    4.04416
N      5.15335   21.21173    3.49611
C      3.83141   21.88366    3.34590
C      3.94026   23.36442    3.05119
P      5.05573   24.08673    4.30537
C      5.86631   21.24420    2.19408
C      7.26359   20.67117    2.24042
P      8.16292   21.64326    3.49006
C      9.51988   20.64755    4.16925
C      8.92489   23.03945    2.64866
H      3.24942   21.35845    2.56856
H      3.30181   21.74565    4.30036
H      3.98219   19.91483    4.60788
H      5.91662   22.30408    1.90247
H      5.25366   20.72234    1.43914
H      7.74721   20.76160    1.25523
H      7.26306   19.60139    2.49433
H      9.72249   22.67822    1.97921
H      8.16198   23.57234    2.06328
H      9.33903   23.72155    3.40695
H     10.12212   21.29203    4.83041
H      9.11853   19.81236    4.75926
H      4.34146   23.57484    2.04778
H      2.94291   23.83300    3.09649
C      4.07450   24.49724    5.75832
H      4.75791   24.85204    6.54457
H      3.34191   25.28380    5.51255
H      3.54954   23.60393    6.12641
C      5.80848   25.59476    3.69087
H      6.51301   25.95671    4.45636
H      6.35961   25.39139    2.76134
H      5.03526   26.35829    3.50472
H      5.71445   18.38790    5.41010
H      6.96863   19.24294    4.48986
C      4.66653   20.47059    7.31849
H      3.76674   20.70792    6.73381
H      4.59262   19.44215    7.70922
H      4.73799   21.17852    8.15636
C      7.58375   20.23513    7.34290
H      7.24665   19.96313    8.35422
H      8.14505   19.39108    6.91756
H      8.22996   21.12321    7.40547
Br    10.61497   19.94349    2.76992
Br     4.54243   18.52672    2.69537
