33
./869-w/FeO.out
C     10.48413    7.14738   15.12240
H     11.17525    7.01284   13.95803
O     11.81472    6.95811   13.01866
H     11.12935    6.58912   15.81418
H     10.46079    8.23817   15.24763
H      9.53936    6.66528   14.83467
Fe    13.12272    7.30023   11.98362
N     14.68332    7.64407   10.25773
N     12.23085    8.66580   10.69807
F     14.62777    7.95653   13.01106
N     13.55208    5.40436   11.35867
C     14.29559    8.82073    9.48833
H     14.92458    9.69474    9.73758
H     14.45459    8.68826    8.40105
C     12.88178    9.21290    9.74367
C     16.02811    7.75100   10.89977
H     16.74536    8.11257   10.13246
C     16.00495    8.82052   11.97592
C     14.60789    6.41864    9.46589
H     13.78448    6.52141    8.73503
H     15.52423    6.23087    8.87948
C     14.25763    5.23934   10.30307
H     12.43496    9.98831    9.09732
H     14.53069    4.23672    9.93368
H     13.26108    4.55711   11.85390
H     11.26600    8.98841   10.82289
H     15.36774    9.70377   11.86879
N     16.46232    6.49477   11.36478
H     17.39791    6.19930   11.11246
H     16.18211    6.25801   12.31145
N     17.04969    8.95631   12.74287
H     17.13396    9.73315   13.39605
H     17.72500    8.19876   12.83544
