45
./8735-j/FeO.out
C      0.48995    0.14340    5.63569
H      0.59547    0.14849    4.35872
O      0.65360    0.14914    3.14552
H      1.46124    0.55590    5.94347
H     -0.37693    0.79411    5.81663
H      0.33771   -0.92076    5.86405
N      0.31451   -2.01948    0.86669
C      1.23400   -1.94738   -0.28146
H      0.68483   -1.51410   -1.13132
H      1.54798   -2.96070   -0.58883
C     -1.03553   -2.44377    0.45202
H     -1.55018   -2.83601    1.34305
H     -0.98183   -3.27318   -0.27406
C      2.44006   -1.09380    0.03941
H      3.04697   -1.55392    0.83164
H      3.08864   -1.00446   -0.84818
C     -1.81822   -1.28091   -0.10981
H     -2.82551   -1.60927   -0.42023
H     -1.33266   -0.86847   -1.00809
C      1.76913    1.23441   -0.52295
H      2.71348    1.54085   -1.00616
H      1.14334    0.78598   -1.31045
C     -2.39813    1.07328    0.41998
H     -2.85680    1.59729    1.27047
H     -3.19280    0.93480   -0.33247
C     -1.26662    1.88668   -0.16734
H     -0.88031    1.39427   -1.07273
H     -1.63129    2.88159   -0.47939
C      1.09329    2.42700    0.11127
H      1.75817    2.86129    0.87365
H      0.89989    3.21784   -0.63356
N     -0.15308    2.02373    0.78684
Fe     0.14884    0.02631    1.54371
N      2.00044    0.22409    0.51172
N     -1.88738   -0.21832    0.90202
H      2.66720    0.58804    1.19610
H     -2.47193   -0.54550    1.67523
C      0.83824   -2.87821    1.93655
H      0.93419   -3.92066    1.58736
H      1.81871   -2.51550    2.26810
H      0.15680   -2.84399    2.79716
C     -0.48072    2.93496    1.89026
H     -0.66619    3.95488    1.51152
H     -1.37599    2.58455    2.41998
H      0.35236    2.95170    2.60477
