59
./8940-ak/FeO.out
C      6.75375   23.73469    8.59626
H      7.07804   23.28519    7.29094
O      7.40494   22.95934    6.25633
H      7.64039   23.40787    9.15585
H      6.68000   24.81936    8.44500
H      5.81529   23.23705    8.87309
Fe     6.36216   22.32458    5.01374
P      5.87949   20.51469    6.34701
C      5.78444   19.05268    5.25113
C      4.83465   19.37993    4.11335
P      5.16754   21.09708    3.57640
C      3.63737   22.04875    3.38555
C      4.08070   23.49648    3.37641
N      4.96286   23.84408    4.51265
C      5.99683   21.03304    1.94707
C      7.46910   20.78049    2.20808
P      8.03874   21.95904    3.49629
C      9.50849   21.19397    4.24611
C      8.60395   23.42816    2.60780
H      4.94107   18.69092    3.26054
H      3.10133   21.78888    2.45797
H      2.97249   21.81642    4.23135
H      3.78297   19.33244    4.43874
H      5.84191   22.01176    1.46386
H      5.52811   20.26836    1.30554
H      8.08064   20.87613    1.29588
H      7.63328   19.76477    2.60549
H      9.50221   23.18092    2.01885
H      7.81471   23.78322    1.92980
H      8.84410   24.22062    3.33113
H     10.10177   20.80751    3.39634
H      9.14180   20.31423    4.80157
H      4.64860   23.70230    2.45679
H      3.20810   24.17343    3.36697
C      4.18818   23.92272    5.75424
H      4.86174   24.10895    6.59727
H      3.43914   24.73311    5.70184
H      3.66949   22.97187    5.92316
C      5.61089   25.13975    4.17810
H      6.20907   24.95065    3.27436
H      4.80545   25.83901    3.88333
H      5.47679   18.15891    5.81936
H      6.80663   18.87510    4.87831
C      4.30527   20.53920    7.23825
H      3.46559   20.61964    6.53407
H      4.19941   19.61208    7.82508
H      4.28342   21.40164    7.91969
C      7.14305   20.14169    7.57501
H      6.93542   19.16256    8.03579
H      8.13109   20.13334    7.09477
H      7.14018   20.92278    8.34683
C     10.31669   22.12395    5.12565
H     11.15498   21.56869    5.57437
H     10.74733   22.95284    4.54476
H      9.69770   22.54387    5.93084
C      6.46238   25.76724    5.24767
H      5.87448   26.07327    6.12447
H      7.26777   25.09691    5.57436
H      6.91202   26.68179    4.83187
