59
./8975-am/FeO.out
C      7.24301   24.13684    8.38219
H      7.22473   23.74996    7.04192
O      7.28725   23.50980    5.92509
H      8.17904   24.71131    8.40433
H      6.33024   24.73526    8.50336
H      7.25853   23.19626    8.94638
Fe     6.33805   22.37000    5.01593
P      6.09437   20.47440    6.27650
C      5.92126   19.08615    5.09696
C      4.89316   19.46485    4.04633
P      5.14979   21.20566    3.51992
C      3.52471   21.95526    3.16369
C      3.76014   23.44960    3.04816
P      4.82075   23.95656    4.45358
C      6.04338   21.10955    1.92668
C      7.46044   20.66504    2.23664
P      8.05076   21.65995    3.65650
C      9.48068   20.81163    4.37671
C      8.65287   23.21395    2.95108
H      4.92579   18.80092    3.16759
H      3.07832   21.51473    2.25686
H      2.86347   21.71789    4.01333
H      3.87315   19.40462    4.45834
H      6.03012   22.12045    1.48800
H      5.51924   20.43306    1.23147
H      8.13837   20.78704    1.37595
H      7.49075   19.60268    2.52692
H      9.55769   23.02928    2.34894
H      7.87237   23.65306    2.31423
H      8.87560   23.90815    3.77417
H     10.18445   20.60433    3.55028
H      9.11445   19.83326    4.73033
H      4.30472   23.69912    2.12278
H      2.82187   24.02850    3.04108
C      3.69928   24.27426    5.83472
H      4.29111   24.61516    6.69602
H      2.97417   25.05579    5.55497
H      3.16401   23.35464    6.10880
C      5.57298   25.53780    4.03589
H      6.22064   25.83918    4.87253
H      6.19076   25.42856    3.13314
H      4.79288   26.29634    3.86183
H      5.64406   18.16249    5.63169
H      6.91361   18.92139    4.64916
C      4.50549   20.51355    7.17302
H      3.73897   20.77388    6.42455
H      4.29228   19.48400    7.51242
C      7.34472   19.96864    7.47443
H      6.99776   19.08307    8.03065
H      8.28308   19.73266    6.95544
H      7.53402   20.79367    8.17417
C     10.12622   21.61261    5.49068
H     10.90807   21.01340    5.98145
H     10.60265   22.52460    5.10283
H      9.38491   21.91798    6.24192
C      4.50646   21.49772    8.32501
H      5.19350   21.18233    9.12356
H      4.80872   22.50078    7.99497
H      3.50088   21.56733    8.76739
