31
./934-x/FeO.out
C     11.09664    7.10725   15.27445
H     11.38860    7.44025   14.08427
O     11.78470    7.72867   12.95854
H     11.43966    6.06474   15.33018
H     11.66437    7.83220   15.87438
H     10.00607    7.24957   15.26267
Fe    13.01060    7.79821   11.82136
N     14.56645    7.86587   10.19206
N     11.99303    8.48942   10.29115
O     14.57766    9.06457   12.58811
O     13.64207    5.74906   11.56592
C     14.13325    8.95286    9.32069
H     14.44831    9.91488    9.75967
H     14.59596    8.89797    8.32160
C     12.62669    8.99081    9.25773
C     15.90274    8.14548   10.80191
H     16.23919    7.18514   11.24420
C     15.66931    8.98966   12.04255
C     14.54342    6.57001    9.52616
H     13.77085    6.54796    8.73294
H     15.49198    6.33688    9.00570
C     14.15464    5.48850   10.48385
H     14.31209    4.42784   10.18687
H     16.54717    9.52290   12.47242
H     10.97454    8.56826   10.30725
N     16.86595    8.61429    9.89220
H     17.73059    8.08513    9.84112
H     17.05498    9.61239    9.90044
N     12.05803    9.56761    8.21141
H     11.05128    9.70365    8.15389
H     12.61111    9.93220    7.44154
