51
./9423-ac/FeO.out
C     -0.65662   -5.11061   -0.83901
H     -0.35044   -4.26462    0.11389
O     -0.08403   -3.49715    0.96715
H     -0.20836   -6.04143   -0.46459
H     -0.16101   -4.66187   -1.71103
H     -1.75481   -5.08043   -0.84832
Fe    -0.14961   -2.26297    2.12803
N      1.97505   -2.15030    2.61754
N      0.25235   -0.41074    1.13515
N     -2.20842   -1.85790    2.58807
N     -0.15676   -3.17457    4.08995
C     -0.14291   -0.49461   -0.27809
C      1.71467   -0.20742    1.23708
C      2.24871   -0.71322    2.55089
C     -0.42851    0.70894    1.81681
C     -1.93266    0.58353    1.95911
C     -2.41788   -0.44531    2.96062
C     -3.05512   -2.23636    1.44876
C      1.04626   -2.70226    4.78672
C      2.24250   -2.84134    3.87097
C     -0.14991   -4.63549    3.92612
C     -1.39280   -2.72149    4.74403
C     -2.52615   -2.71376    3.75069
H     -0.09524   -5.13005    4.91086
H     -1.06188   -4.95719    3.40999
H      0.69963   -4.94945    3.30885
H     -2.85961   -3.28298    1.18343
H     -4.12210   -2.11107    1.70071
H     -2.82645   -1.61037    0.57905
H      0.12342    0.43562   -0.80835
H      0.36452   -1.34736   -0.74681
H     -1.22433   -0.64754   -0.36303
H      1.96239    0.85765    1.09264
H      2.18851   -0.76108    0.41161
H      1.77356   -0.21886    3.41207
H      3.32929   -0.51071    2.63280
H      2.42255   -3.89683    3.62783
H     -1.64208   -3.36656    5.60458
H     -1.21594   -1.71389    5.14797
H     -3.45980   -2.37389    4.23153
H     -2.71722   -3.72820    3.37433
H     -1.91132   -0.25549    3.91821
H     -3.49731   -0.29068    3.13399
H     -2.42136    0.46167    0.98286
H      0.00910    0.82657    2.82004
H     -0.20358    1.63537    1.25968
H      0.90706   -1.64374    5.05585
H      1.21376   -3.26111    5.72271
H      2.48398   -2.61686    1.86332
Br     3.83534   -2.25714    4.77618
Br    -2.55267    2.29119    2.60784
