41
./945-aa/FeO.out
C      9.17376   23.46336    8.09134
H      8.27583   23.00994    7.28103
O      7.43268   22.57422    6.51812
H      9.93252   22.66816    8.06837
H      9.45459   24.41095    7.60961
H      8.59746   23.55143    9.02368
Fe     6.35049   21.89612    5.42855
N      5.89307   20.06434    6.19484
C      6.02815   19.16085    5.03672
C      4.93767   19.31564    3.99134
C      3.78721   21.76021    3.50901
C      4.46868   23.12964    3.67340
N      5.05048   23.38557    5.00318
C      5.83115   20.88163    2.09939
C      7.25812   20.97347    2.56931
O      7.41123   21.86302    3.70889
H      5.12567   18.47571    3.30130
H      3.98156   19.05339    4.47029
H      5.56615   21.79706    1.54947
H      5.87029   20.09889    1.32251
H      7.88924   21.37677    1.76065
H      7.66533   19.98838    2.85126
H      5.26397   23.27524    2.92984
H      3.71202   23.90864    3.48458
H      6.00194   18.11547    5.39331
H      7.04101   19.30476    4.62818
C      4.68995   20.53140    3.06639
H      3.97134   20.04687    2.38951
H      6.55952   19.82031    6.93525
H      4.96145   19.97517    6.61355
H      8.33129   22.16526    3.77697
H      5.53439   24.28944    5.02071
H      4.31020   23.45953    5.70903
C      2.97210   21.44399    4.75534
H      2.27436   22.26558    4.98421
H      2.36109   20.54162    4.61166
H      3.59498   21.27672    5.65023
C      2.80545   21.97972    2.34541
H      3.33347   22.23232    1.41277
H      2.21494   21.06883    2.16585
H      2.10172   22.79687    2.56520
