40
./9579-p/FeO.out
C     -1.41752    2.00630    4.03106
H     -1.97638    2.03911    2.78667
O     -2.41139    2.11278    1.73422
H     -0.67342    1.20498    3.92361
H     -1.02558    3.02726    4.13603
H     -2.30246    1.76796    4.63764
Fe    -2.38056    2.12015    0.01412
N     -3.59719    3.81226   -0.29070
N     -1.91854    1.10354   -1.79895
O     -0.49145    2.95452   -0.07973
O     -3.94652    0.61385    0.15841
C     -4.90229    3.60321    0.35201
H     -5.54076    4.49076    0.20234
H     -5.39556    2.72678   -0.08615
H     -4.75124    3.44137    1.42730
C     -2.92151    4.97527    0.30240
H     -1.94565    5.12251   -0.17713
H     -3.53573    5.88087    0.15978
H     -2.78035    4.79750    1.37666
C     -3.74080    3.96354   -1.74253
H     -4.21325    3.06546   -2.16677
H     -4.37444    4.83623   -1.98043
H     -2.75352    4.12105   -2.20119
H     -1.18000    0.40071   -1.70935
H     -2.79427    0.58178   -2.06830
H     -1.64708    1.68891   -2.59168
H     -0.13840    3.28389    0.76571
H     -4.14849    0.55035    1.10518
C      0.67553    3.08533   -1.02139
H      0.96906    2.05318   -1.27042
H      0.25387    3.58685   -1.90767
C     -4.37113   -0.59511   -0.50636
H     -3.67544   -1.41593   -0.25603
H     -5.37197   -0.84410   -0.10391
N     -4.33643   -0.35504   -1.91147
H     -5.20550    0.05472   -2.25715
H     -4.18902   -1.22312   -2.42724
N      1.68307    3.79559   -0.39945
H      1.83310    4.76210   -0.66793
H      2.53623    3.30572   -0.15313
