25
./973-k/FeO.out
C     11.81999    7.93398   15.29942
H     12.22184    7.64312   14.00375
O     12.60303    7.49926   12.95578
H     12.16092    7.02329   15.81174
H     12.37021    8.86042   15.51230
H     10.73720    8.02819   15.13515
Fe    13.60837    7.87453   11.61169
O     14.83228    8.22026    9.81820
N     12.34976    9.38526   10.91464
N     15.34084    8.32057   12.74785
N     13.40790    5.88449   10.89681
C     12.30436    9.99172    9.79044
C     15.86053    7.60699   13.67307
C     12.31302    5.22372   10.85252
H     11.54246   10.76003    9.57303
H     12.24839    4.17404   10.52307
H     16.74874    7.90876   14.25168
H     11.62150    9.66803   11.58028
H     15.11647    7.48430    9.25318
H     15.58969    8.82525    9.85847
H     11.40407    5.75595   11.17341
H     13.04308    9.74305    9.01489
H     15.37298    6.64170   13.88185
Br    16.07572    9.98910   12.35515
Br    14.99866    5.02108   10.43817
