28
./973-v/FeO.out
C     10.83629    7.31647   15.23781
H     11.34787    7.21698   14.06519
O     11.89594    7.17461   12.97519
H     11.55561    6.76309   15.85792
H     10.80849    8.40463   15.39050
H      9.86430    6.82751   15.07636
Fe    13.06099    7.45919   11.80421
N     14.61404    7.72032   10.10240
N     12.04519    8.56364   10.43667
O     14.54601    8.82987   12.56973
N     13.83852    5.57684   11.50402
C     14.13773    8.84365    9.28953
H     14.65205    9.76928    9.61127
H     14.40754    8.73605    8.22559
C     12.67979    9.07465    9.44929
C     15.87004    7.98404   10.78138
H     16.28182    7.02865   11.16233
C     15.63968    8.81652   12.02502
C     14.68340    6.41877    9.42324
H     15.63624    6.30010    8.87574
C     14.45193    5.31274   10.41010
H     12.18347    9.73578    8.71826
H     14.77424    4.29531   10.13183
H     16.50049    9.37640   12.45128
H     13.64275    4.77505   12.11318
H     11.04871    8.79261   10.50927
Br    17.25425    8.73357    9.67231
Br    13.29218    6.14716    8.11904
