25
./978-k/FeO.out
C     11.48359    8.07372   15.10908
H     12.46087    7.92658   14.13247
O     13.16966    7.79823   13.27028
H     11.68680    7.17051   15.70172
H     11.79828    9.03055   15.54897
H     10.55916    8.07846   14.51604
Fe    13.59395    7.74104   11.60409
O     14.28678    7.66025    9.51847
N     12.26976    9.27612   10.98443
N     15.58707    8.30765   12.07871
N     13.09907    5.72407   11.40699
C     12.14480   10.44088   11.49719
C     16.27474    7.83317   13.04797
C     13.36598    4.87714   10.48771
H     11.41226   11.18690   11.14840
H     13.04553    3.82320   10.55554
H     17.28935    8.18049   13.30193
H     12.57596    5.33908   12.20170
H     13.68774    7.91480    8.79902
H     15.15918    8.00078    9.26419
H     13.93149    5.20375    9.60310
H     12.82013   10.68575   12.33210
H     15.79892    7.04153   13.64738
Br    16.30373    9.70404   11.06735
Br    11.13988    8.76039    9.59339
