41
./985-aa/FeO.out
C      9.16455   23.28653    8.13353
H      8.28717   22.86890    7.30182
O      7.44321   22.46634    6.50229
H      9.86073   22.43728    8.18749
H      9.54774   24.18884    7.63567
H      8.55257   23.46038    9.03048
Fe     6.36570   21.90697    5.34953
N      5.59237   20.20352    6.12460
C      5.80527   19.20336    5.04864
C      4.82032   19.40408    3.90196
C      3.94973   21.92144    3.30779
C      4.67844   23.24774    3.52417
N      5.15095   23.47164    4.90310
C      5.94477   20.83169    2.02521
C      7.34344   20.83062    2.58031
O      7.50164   21.76544    3.68331
H      4.99846   18.53803    3.24498
H      3.42487   22.13987    2.36230
H      3.81486   19.22302    4.31510
H      5.78334   21.74495    1.43083
H      5.96512   20.01667    1.28131
H      8.05463   21.13737    1.79612
H      7.64584   19.83148    2.93628
H      5.54707   23.34785    2.85765
H      3.98080   24.06186    3.26145
H      6.84680   19.34973    4.70868
C      4.72979   20.60865    2.93858
H      3.99593   20.18021    2.23697
H      6.11034   19.93895    6.96937
H      4.60345   20.22105    6.39509
H      8.43937   21.98947    3.79808
H      5.64943   24.36409    4.98338
H      4.35666   23.54189    5.54826
C      2.85926   21.70707    4.34211
H      2.20641   22.59153    4.41677
H      2.21454   20.85740    4.07389
H      3.25614   21.50421    5.35073
C      5.70117   17.79687    5.61408
H      5.93931   17.05538    4.83719
H      6.40597   17.64717    6.44721
H      4.67850   17.59838    5.97350
