28
./988-v/FeO.out
C     10.86050    7.44782   15.23359
H     11.40870    7.21164   14.10068
O     11.98123    7.05396   13.03045
H     11.48360    6.85125   15.91515
H     10.95502    8.53853   15.32944
H      9.84413    7.06670   15.05645
Fe    13.09856    7.38476   11.82506
N     14.64128    7.71150   10.13629
N     12.01911    8.36008   10.38559
O     14.53251    8.79969   12.60310
N     13.81626    5.52487   11.45271
C     14.12656    8.82477    9.33406
H     14.57432    9.77731    9.67551
H     14.43320    8.75100    8.27526
C     12.65192    8.96239    9.44922
C     15.88457    7.99171   10.82223
H     16.31056    7.03768   11.19032
C     15.63312    8.80927   12.07020
C     14.68800    6.44519    9.40807
H     13.90034    6.42877    8.63541
H     15.64738    6.30900    8.87813
C     14.40719    5.29490   10.33082
H     12.13781    9.61866    8.72548
H     16.47845    9.38075   12.51118
H     13.60133    4.70986   12.03585
H     11.00729    8.52220   10.42690
Br    17.25772    8.78674    9.72822
Br    14.88154    3.62787    9.74401
