23
./a/FeO.out
C      0.33388    0.04370   -4.52243
H      0.53819   -0.03265   -3.22830
O      0.68071   -0.09014   -2.04826
H      0.55010   -0.98850   -4.83344
H     -0.71695    0.35802   -4.58946
H      1.08229    0.79680   -4.80839
O     -0.30552   -2.09505   -0.28859
O      0.52689    2.05677   -0.18677
N      2.29291   -0.47045    0.22026
O     -1.86334    0.38378   -0.46598
O     -0.25789    0.00578    1.75212
H     -0.59443   -2.59167    0.49121
H     -0.17980   -2.73411   -1.00636
H      0.45595    2.58586    0.62150
H      0.90114    2.62942   -0.87342
H      2.87883   -0.54411   -0.61762
H      2.40322   -1.35676    0.72213
H     -2.15191    1.23974   -0.81920
H     -2.45691   -0.27120   -0.86517
H      0.21146   -0.11652    2.58988
H     -1.18159    0.18487    1.98468
Fe     0.28320   -0.04924   -0.39785
H      2.72280    0.25229    0.80534
