24
./ah/FeO.out
C      0.10383   -0.01793   -4.41405
H      0.49005   -0.06540   -3.06452
O      0.69148   -0.09665   -1.96860
H     -0.28838    1.00509   -4.49299
H     -0.62499   -0.83793   -4.46713
H      1.09275   -0.20489   -4.85685
O     -0.11121   -2.13486   -0.11146
O      0.49658    2.06010   -0.08124
P      2.69961   -0.40070    0.18759
P     -2.25522    0.32636   -0.80091
O     -0.20009    0.00324    1.87088
H     -0.33991   -2.64217    0.68066
H      0.05088   -2.76974   -0.82485
H      0.44006    2.59657    0.72260
H      0.83955    2.63025   -0.78529
H      3.53917    0.57503   -0.40656
H      3.22296   -1.58270   -0.39467
H     -2.51618    1.47862   -1.58683
H     -2.82623   -0.67244   -1.63142
H      0.42960   -0.09240    2.60062
H     -1.06286    0.13342    2.29143
Fe     0.23588   -0.04210   -0.30542
H      3.27355   -0.47768    1.48567
H     -3.28984    0.45529    0.16559
