27
./at/FeO.out
C      1.35332   -1.02170   -4.23297
H      0.55200   -0.37621   -3.25372
O     -0.11700    0.16317   -2.52115
H      1.97480   -0.18953   -4.59120
H      0.55355   -1.34462   -4.91420
H      1.87765   -1.82309   -3.69536
P      2.33872   -0.33196   -0.86013
H      2.76307   -1.67221   -1.06799
H      3.12161    0.00069    0.27636
Fe     0.04475    0.07017   -0.80258
H      3.06247    0.33401   -1.88244
P      0.84818    2.52191   -0.48588
H      2.08654    2.89520    0.10927
H      1.02164    3.09929   -1.77101
H      0.02159    3.51924    0.10393
P     -0.67244   -2.30789   -0.97616
H     -1.95754   -2.44638   -1.56366
H      0.09041   -3.04904   -1.91498
H     -0.77662   -3.27823    0.05910
P     -2.03594    1.08607   -0.71006
H     -2.25244    2.07241   -1.70546
H     -3.11719    0.19886   -0.95600
H     -2.49326    1.74422    0.46182
P     -0.00399   -0.28391    1.48150
H     -1.20147   -0.80788    2.03696
H      0.93922   -1.18874    2.03738
H      0.19464    0.83773    2.33175
