23
./bb/FeO.out
C     -3.82793    0.30444    3.92208
H     -2.74167    0.30792    3.73552
O     -2.44832    2.65284    1.49013
H     -4.28992   -0.63291    3.57438
H     -3.97537    0.36941    5.01055
H     -4.31356    1.18355    3.46857
Fe    -2.48475    2.00188    0.01086
P     -3.80748    3.95798   -0.40395
H     -3.09217    5.12915   -0.05066
H     -4.35731    4.26390   -1.67755
N     -2.60886    1.29605   -1.96351
H     -2.20705    1.93629   -2.65903
H     -2.12511    0.40277   -2.11604
N     -0.39144    2.05880   -0.03300
H     -0.02888    1.59134    0.80702
H      0.11101    1.66170   -0.83392
N     -3.31460    0.24765    0.75283
H     -3.44200    0.34308    1.77388
H     -4.23905    0.01630    0.37210
H     -0.07354    3.03142    0.05920
H     -4.92642    3.98222    0.46540
H     -2.73613   -0.58905    0.61604
H     -3.56934    1.13217   -2.28796
