35
./o/FeO.out
C     -1.87249    1.83339    4.22809
H     -2.06803    1.95404    2.91713
O     -2.24154    2.06374    1.76817
H     -2.67059    1.12966    4.50315
H     -0.84659    1.44133    4.26700
H     -2.00681    2.87229    4.56086
Fe    -2.44220    2.15238    0.08832
N     -3.65461    3.91460   -0.00788
N     -1.25327    0.43462   -0.56417
O     -0.75190    3.25714   -0.60169
N     -4.12998    0.86499   -0.30259
C     -4.91370    3.67152    0.71291
H     -5.50543    4.60181    0.76119
H     -5.50973    2.91509    0.18807
H     -4.69176    3.33453    1.73463
C     -2.93407    5.01976    0.64406
H     -2.02341    5.25497    0.08073
H     -3.57186    5.91999    0.66951
H     -2.67775    4.73214    1.67251
C     -3.91041    4.22316   -1.41898
H     -4.44337    3.38802   -1.89668
H     -4.53883    5.12671   -1.51212
H     -2.96040    4.41165   -1.93886
H     -0.29580    0.52053   -0.21075
H     -1.61641   -0.43299   -0.15887
H     -1.16108    0.25546   -1.56819
H     -0.19290    3.66080    0.07891
H     -4.64028    0.58695    0.54457
C     -4.60251    0.35285   -1.37267
H     -4.13338    0.58155   -2.34320
H     -5.47895   -0.31858   -1.37647
C     -0.07812    3.27441   -1.86591
H      0.19333    4.30705   -2.13964
H      0.82762    2.64521   -1.84082
H     -0.77972    2.88307   -2.61620
