34
./r/FeO.out
C     -2.17173    2.51392    4.32444
H     -2.36436    2.29170    2.96001
O     -2.50967    2.15142    1.85107
H     -1.62201    1.60227    4.59766
H     -1.60190    3.45332    4.31866
H     -3.21747    2.57556    4.65717
Fe    -2.37239    2.18958    0.13423
N     -3.62589    3.85489   -0.17696
O     -1.93534    1.69862   -2.01175
N     -0.28295    2.48231    0.21170
O     -3.63843    0.54107    0.08200
C     -4.87411    3.63272    0.57097
H     -5.54302    4.50174    0.44942
H     -5.37919    2.73661    0.18512
H     -4.64177    3.49415    1.63371
C     -2.87892    4.99763    0.36996
H     -1.94918    5.14506   -0.19881
H     -3.48211    5.91911    0.29319
H     -2.64494    4.80854    1.42603
C     -3.91216    4.04861   -1.60345
H     -4.45398    3.17515   -1.99498
H     -4.55315    4.93642   -1.74450
H     -2.97776    4.20895   -2.15930
H     -1.31125    1.00478   -2.27108
H     -2.51814    1.81556   -2.77573
H      0.12292    2.27512    1.13175
H     -3.87605    0.33584    1.00033
C      0.54987    2.97312   -0.62405
H      1.61004    3.14278   -0.36801
H      0.21010    3.23824   -1.63647
C     -3.81660   -0.61983   -0.74220
H     -3.07741   -1.39812   -0.48766
H     -4.83808   -1.01084   -0.60750
H     -3.68788   -0.30639   -1.78517
