52

O      7.44691   23.13745    6.03847
Fe     6.30238   22.12085    4.93192
N      5.95470   20.39096    6.05258
C      5.69885   19.21687    5.18583
C      4.62810   19.49347    4.14583
P      5.03822   21.11210    3.44830
C      3.64450   22.19404    3.05773
C      4.22118   23.58745    3.21966
N      4.96591   23.75213    4.49186
C      6.07478   20.82919    1.92506
C      7.48944   20.65307    2.46595
N      7.84552   21.63537    3.50013
C      9.08743   21.23378    4.17104
C      8.02104   22.96758    2.91216
H      4.60624   18.73314    3.34860
H      3.27303   22.02110    2.03425
H      2.81175   21.99121    3.74839
H      3.61728   19.53232    4.57996
H      6.00079   21.77972    1.37118
H      8.21903   20.69741    1.63707
H      7.57377   19.65118    2.91274
H      8.81797   22.95442    2.14751
H      7.08695   23.29424    2.43838
H      8.29617   23.67275    3.70714
H      9.93053   21.24841    3.45898
H      9.28614   21.92685    4.99823
H      8.98139   20.21352    4.55921
H      4.92968   23.79580    2.40396
H      3.43047   24.35630    3.15590
C      4.04089   23.75320    5.63184
H      4.61465   23.85803    6.56095
H      3.33526   24.59867    5.55387
H      3.46638   22.82125    5.65985
C      5.67944   25.03933    4.46779
H      6.27092   25.14131    5.38446
H      6.35294   25.07950    3.60499
H      4.95445   25.86730    4.39098
H      5.41087   18.37279    5.83621
H      6.65096   18.95292    4.70627
C      4.73748   20.64835    6.92208
H      3.93352   20.93384    6.23001
H      5.00828   21.53557    7.51389
C      7.09443   20.09618    6.93374
H      6.87091   19.20252    7.53794
H      7.99151   19.90815    6.33587
H      7.28132   20.95436    7.58868
N      5.56506   19.76982    1.13416
H      5.48031   19.97941    0.14418
H      6.03975   18.88063    1.26065
N      4.38563   19.53267    7.69641
H      3.46113   19.14971    7.53855
H      4.59551   19.58697    8.68673
