23

O      0.21368   -0.45425   -1.77474
O     -0.50311   -2.25542   -0.19102
O      0.18933    2.08207   -0.28257
P      2.30972   -0.55754    0.05634
N     -2.19327    0.22836   -0.88529
O     -0.47882    0.27163    1.69224
H     -0.94630   -2.66531    0.56602
H     -0.38047   -2.94472   -0.86086
H      3.16724    0.33118   -0.64201
H      2.77127   -1.79303   -0.46383
H     -2.37806    0.96278   -1.57386
H     -2.70672   -0.59434   -1.21508
H     -0.05123   -0.17854    2.43422
H     -0.23636    1.24145    1.77340
Fe    -0.09491   -0.21835   -0.63722
H      2.94239   -0.56589    1.32942
H     -2.64395    0.51636   -0.01198
N      0.24389    2.71179    0.98275
H      1.19077    3.09130    1.11489
H     -0.41483    3.50186    0.97497
N      0.49817    2.81617   -1.41346
H     -0.13512    3.62353   -1.46170
H      1.46051    3.16516   -1.32741
