12

H 0.000000 0.000000 0.000000
H 0.000000 0.000000 2.054545
H 0.000000 0.000000 4.109091
H 0.000000 0.000000 6.163636
H 0.000000 0.000000 8.218182
H 0.000000 0.000000 10.272727
H 0.000000 0.000000 12.327273
H 0.000000 0.000000 14.381818
H 0.000000 0.000000 16.436364
H 0.000000 0.000000 18.490909
H 0.000000 0.000000 20.545455
H 0.000000 0.000000 22.600000
