52

O      7.64888   23.31686    6.23375
Fe     6.10041   21.94144    4.73664
N      5.75273   20.21155    5.85730
C      5.49688   19.03746    4.99055
C      4.42613   19.31406    3.95055
P      4.83625   20.93269    3.25302
C      3.44253   22.01463    2.86245
C      4.01921   23.40804    3.02438
N      4.76394   23.57272    4.29658
C      5.87281   20.64978    1.72978
C      7.28747   20.47366    2.27067
N      7.64355   21.45596    3.30485
C      8.88546   21.05437    3.97576
C      7.81907   22.78817    2.71688
H      4.40427   18.55373    3.15332
H      3.07106   21.84169    1.83897
H      2.60978   21.81180    3.55311
H      3.41531   19.35291    4.38468
H      5.79882   21.60031    1.17590
H      8.01706   20.51800    1.44179
H      7.37180   19.47177    2.71746
H      8.61600   22.77501    1.95223
H      6.88498   23.11483    2.24310
H      8.09420   23.49334    3.51186
H      9.72856   21.06900    3.26370
H      9.08417   21.74744    4.80295
H      8.77942   20.03411    4.36393
H      4.72771   23.61639    2.20868
H      3.22850   24.17689    2.96062
C      3.83892   23.57379    5.43656
H      4.41268   23.67862    6.36567
H      3.13329   24.41926    5.35859
H      3.26441   22.64184    5.46457
C      5.47747   24.85992    4.27251
H      6.06895   24.96190    5.18918
H      6.15097   24.90009    3.40971
H      4.75248   25.68789    4.19570
H      5.20890   18.19338    5.64093
H      6.44899   18.77351    4.51099
C      4.53551   20.46894    6.72680
H      3.73155   20.75443    6.03473
H      4.80631   21.35616    7.31861
C      6.89246   19.91677    6.73846
H      6.66894   19.02311    7.34266
H      7.78954   19.72874    6.14059
H      7.07935   20.77495    7.39340
N      5.36309   19.59041    0.93888
H      5.27834   19.80000   -0.05110
H      5.83778   18.70122    1.06537
N      4.18366   19.35326    7.50113
H      3.25916   18.97030    7.34327
H      4.39354   19.40756    8.49145
