33

O      6.82070   22.62519    6.81848
Fe     6.30003   21.80306    5.15261
N      6.05664   19.73305    5.69452
C      5.74871   18.85046    4.56123
C      4.58616   19.28571    3.68447
C      4.00515   21.82746    3.61380
C      4.49776   23.20308    3.18257
N      5.80098   23.47102    3.80374
C      5.93032   20.76661    2.05043
C      7.33735   20.73404    2.58967
N      7.63906   21.21649    3.77032
H      4.47295   18.47418    2.94723
H      2.92709   21.77318    3.38323
H      3.64064   19.25081    4.25409
H      5.86286   21.69730    1.46134
H      5.87536   19.97145    1.29039
H      4.53563   23.28446    2.08652
H      3.76878   23.95775    3.51780
H      5.53387   17.83079    4.92619
H      6.66231   18.76806    3.95565
C      4.65262   20.60441    2.89369
H      3.91906   20.44918    2.08608
H      6.93052   19.43089    6.13483
H      5.35540   19.63398    6.43357
H      8.63513   21.18828    3.99817
H      6.55013   23.54498    3.11581
H      5.80188   24.35541    4.31517
N      8.25251   20.24302    1.75241
H      9.24381   20.25338    1.97435
H      7.99755   19.89435    0.83481
N      4.18940   21.77832    5.06846
H      3.75565   22.58544    5.52541
H      3.73429   20.95675    5.46553
