22

O      0.57031   -0.28324   -2.59946
O     -0.66709   -2.13712   -0.38183
O     -0.35990    1.89867    0.31643
P      2.04606   -0.53646    0.38738
O     -2.35339    0.11938   -0.75358
O     -0.76755   -0.13725    1.74867
H     -0.72924   -2.43266    0.54358
H     -0.83778    1.96179    1.22971
H      0.04102    2.73237    0.03672
H      2.96897    0.34494   -0.22827
H      2.48266   -1.80092   -0.07726
H     -2.71514    0.87660   -1.24004
H     -2.86977   -0.64808   -1.04523
H      0.06134   -0.08743    2.25404
Fe    -0.31748   -0.03609   -0.25922
H      2.54092   -0.55401    1.71973
N      0.19404   -3.08776   -1.01502
H     -0.43151   -3.85283   -1.30283
H      0.44633   -2.60182   -1.88377
N     -1.42320    1.10119    2.01296
H     -2.39675    0.90660    1.75224
H     -1.43649    1.24044    3.03273
