22

O      0.44434   -0.06441   -2.03249
O     -0.13176   -2.17943   -0.07121
O      0.10773    2.16127   -0.26153
P      2.37424   -0.30704    0.06359
O     -2.03755   -0.06443   -0.71927
O     -0.64106    0.01076    1.68341
H     -0.22828   -2.85443   -0.76923
H      0.53141    2.57598    0.50515
H      0.36283    2.70154   -1.02613
H      3.28435    0.73903   -0.23609
H      3.01662   -1.40156   -0.56626
H     -2.61336    0.32098   -1.39440
H     -2.31859    0.26624    0.23578
H     -0.79213   -1.01458    1.66698
Fe     0.00268    0.03200   -0.68190
H      2.68269   -0.55020    1.42749
N     -0.93253   -2.47185    1.03290
H     -1.88513   -2.68965    0.71559
H     -0.54582   -3.29455    1.51254
N     -1.94509    0.54948    1.82075
H     -2.37163    0.13016    2.65796
H     -1.79979    1.53586    2.06131
