45

O     -0.35081   -3.15726    0.52484
Fe    -0.20894   -2.15880    1.97660
N      1.90021   -2.28794    2.45029
N      0.30263   -0.27280    1.16932
N     -2.24589   -1.83082    2.58622
O     -0.14357   -2.01427    4.15571
C     -0.02619   -0.19481   -0.26174
C      1.75984   -0.10766    1.36610
C      2.24817   -0.86027    2.58169
C      2.70460   -2.94350    1.41200
C     -0.43200    0.75108    1.94879
C     -1.93940    0.60169    1.99047
C     -2.47971   -0.42157    2.96264
C     -3.12958   -2.24727    1.48669
C      1.09001   -2.35960    4.76511
C      1.89558   -3.05180    3.69497
C     -1.35467   -2.39308    4.81157
C     -2.35189   -2.73875    3.72321
H     -2.94406   -3.30141    1.24806
H     -4.18227   -2.11568    1.78333
H     -2.91977   -1.64501    0.59588
H      0.24949    0.79575   -0.66166
H      0.51302   -0.98233   -0.80150
H     -1.09912   -0.35500   -0.41415
H      2.00916    0.96214    1.46617
H      2.26689   -0.46114    0.46001
H      2.55053   -2.44560    0.44948
H      3.77385   -2.91178    1.68048
H      2.38100   -3.98512    1.30904
H      1.76741   -0.45439    3.48009
H      3.33750   -0.72671    2.70143
H      2.90843   -3.32559    4.03874
H     -1.19420   -3.28326    5.43807
H     -1.70335   -1.56738    5.45209
H     -2.16321   -3.75490    3.34193
H     -2.02189   -0.25283    3.94564
H     -3.56647   -0.28685    3.09247
H     -2.33371    1.57413    2.32704
H     -2.36174    0.47241    0.98364
H     -0.03246    0.73819    2.97502
H     -0.17489    1.73509    1.51645
H      1.58978   -1.45196    5.14451
H      0.94387   -3.03928    5.61774
Br     0.95858   -4.72966    3.33038
Br    -4.10276   -2.79981    4.53035
