23

O     11.93067    7.03899   13.08500
Fe    13.14912    7.39973   11.77051
N     14.69184    7.72647   10.08174
N     12.06967    8.37505   10.33104
O     14.58307    8.81466   12.54855
N     13.86682    5.53984   11.39816
C     14.17712    8.83974    9.27951
H     14.62488    9.79228    9.62096
H     14.48376    8.76597    8.22071
C     12.70248    8.97736    9.39467
C     15.93513    8.00668   10.76768
H     16.36112    7.05265   11.13577
C     15.68368    8.82424   12.01565
C     14.73856    6.46016    9.35352
H     13.95090    6.44374    8.58086
H     15.69794    6.32397    8.82358
C     14.45775    5.30987   10.27627
H     12.18837    9.63363    8.67093
H     16.52901    9.39572   12.45663
H     13.65189    4.72483   11.98130
H     11.05785    8.53717   10.37235
Br    17.30828    8.80171    9.67367
Br    14.93210    3.64284    9.68946
