22

O      0.46627   -0.06919   -2.09954
O     -0.13176   -2.17943   -0.07121
O      0.10773    2.16127   -0.26153
P      2.35231   -0.30226    0.13064
O     -2.05948   -0.05965   -0.65222
O     -0.64106    0.01076    1.68341
H     -0.22828   -2.85443   -0.76923
H      0.53141    2.57598    0.50515
H      0.36283    2.70154   -1.02613
H      3.26242    0.74381   -0.16904
H      2.99469   -1.39678   -0.49921
H     -2.63529    0.32576   -1.32735
H     -2.34052    0.27102    0.30283
H     -0.79213   -1.01458    1.66698
Fe    -0.01925    0.03678   -0.61485
H      2.66076   -0.54542    1.49454
N     -0.93253   -2.47185    1.03290
H     -1.88513   -2.68965    0.71559
H     -0.54582   -3.29455    1.51254
N     -1.94509    0.54948    1.82075
H     -2.37163    0.13016    2.65796
H     -1.79979    1.53586    2.06131
