22

O      0.44196   -0.24751   -2.26111
O     -0.66709   -2.13712   -0.38183
O     -0.23155    1.86294   -0.02192
P      2.17441   -0.57219    0.04903
O     -2.35339    0.11938   -0.75358
O     -0.76755   -0.13725    1.74867
H     -0.72924   -2.43266    0.54358
H     -0.70943    1.92606    0.89136
H      0.16937    2.69664   -0.30163
H      3.09732    0.30921   -0.56662
H      2.61101   -1.83665   -0.41561
H     -2.71514    0.87660   -1.24004
H     -2.86977   -0.64808   -1.04523
H      0.06134   -0.08743    2.25404
Fe    -0.18913   -0.07182   -0.59757
H      2.66927   -0.58974    1.38138
N      0.19404   -3.08776   -1.01502
H     -0.43151   -3.85283   -1.30283
H      0.44633   -2.60182   -1.88377
N     -1.42320    1.10119    2.01296
H     -2.39675    0.90660    1.75224
H     -1.43649    1.24044    3.03273
