45

O     -0.33541   -3.04886    0.68246
Fe    -0.22434   -2.26720    1.81898
N      1.88481   -2.39634    2.29267
N      0.28723   -0.38120    1.01170
N     -2.26129   -1.93922    2.42860
O     -0.15897   -2.12267    3.99809
C     -0.04159   -0.30321   -0.41936
C      1.74444   -0.21606    1.20848
C      2.23277   -0.96867    2.42407
C      2.68920   -3.05190    1.25438
C     -0.44740    0.64268    1.79117
C     -1.95480    0.49329    1.83285
C     -2.49511   -0.52997    2.80502
C     -3.14498   -2.35567    1.32907
C      1.07461   -2.46800    4.60749
C      1.88018   -3.16020    3.53735
C     -1.37007   -2.50148    4.65395
C     -2.36729   -2.84715    3.56559
H     -2.95946   -3.40981    1.09044
H     -4.19767   -2.22408    1.62571
H     -2.93517   -1.75341    0.43826
H      0.23409    0.68735   -0.81928
H      0.49762   -1.09073   -0.95912
H     -1.11452   -0.46340   -0.57177
H      1.99376    0.85374    1.30855
H      2.25149   -0.56954    0.30239
H      2.53513   -2.55400    0.29186
H      3.75845   -3.02018    1.52286
H      2.36560   -4.09352    1.15142
H      1.75201   -0.56279    3.32247
H      3.32210   -0.83511    2.54381
H      2.89303   -3.43399    3.88112
H     -1.20960   -3.39166    5.28045
H     -1.71875   -1.67578    5.29447
H     -2.17861   -3.86330    3.18431
H     -2.03729   -0.36123    3.78802
H     -3.58187   -0.39525    2.93485
H     -2.34911    1.46573    2.16942
H     -2.37714    0.36401    0.82602
H     -0.04786    0.62979    2.81740
H     -0.19029    1.62669    1.35883
H      1.57438   -1.56036    4.98689
H      0.92847   -3.14768    5.46012
Br     0.94318   -4.83806    3.17276
Br    -4.11816   -2.90821    4.37273
