29

O     -2.54285    2.14220    2.26605
Fe    -2.33921    2.19880   -0.28075
N     -3.59271    3.86411   -0.59194
O     -1.93534    1.69862   -2.01175
N     -0.24977    2.49153   -0.20328
O     -3.60525    0.55029   -0.33298
C     -4.84093    3.64194    0.15599
H     -5.50984    4.51096    0.03444
H     -5.34601    2.74583   -0.22986
H     -4.60859    3.50337    1.21873
C     -2.84574    5.00685   -0.04502
H     -1.91600    5.15428   -0.61379
H     -3.44893    5.92833   -0.12179
H     -2.61176    4.81776    1.01105
C     -3.87898    4.05783   -2.01843
H     -4.42080    3.18437   -2.40996
H     -4.51997    4.94564   -2.15948
H     -2.94458    4.21817   -2.57428
H     -1.31125    1.00478   -2.27108
H     -2.51814    1.81556   -2.77573
H      0.15610    2.28434    0.71677
H     -3.84287    0.34506    0.58535
C      0.58305    2.98234   -1.03903
H      1.64322    3.15200   -0.78299
H      0.24328    3.24746   -2.05145
C     -3.78342   -0.61061   -1.15718
H     -3.04423   -1.38890   -0.90264
H     -4.80490   -1.00162   -1.02248
H     -3.65470   -0.29717   -2.20015
