23

O      0.29667   -0.51768   -2.08063
O     -0.58610   -2.19199    0.11487
O      0.18933    2.08207   -0.28257
P      2.30972   -0.55754    0.05634
N     -2.27626    0.29179   -0.57940
O     -0.47882    0.27163    1.69224
H     -1.02929   -2.60188    0.87191
H     -0.46346   -2.88129   -0.55497
H      3.16724    0.33118   -0.64201
H      2.77127   -1.79303   -0.46383
H     -2.46105    1.02621   -1.26797
H     -2.78971   -0.53091   -0.90919
H     -0.05123   -0.17854    2.43422
H     -0.23636    1.24145    1.77340
Fe    -0.17790   -0.15492   -0.33133
H      2.94239   -0.56589    1.32942
H     -2.72694    0.57979    0.29391
N      0.24389    2.71179    0.98275
H      1.19077    3.09130    1.11489
H     -0.41483    3.50186    0.97497
N      0.49817    2.81617   -1.41346
H     -0.13512    3.62353   -1.46170
H      1.46051    3.16516   -1.32741
