22

O      0.51012   -0.07877   -2.23364
O     -0.13176   -2.17943   -0.07121
O      0.10773    2.16127   -0.26153
P      2.30846   -0.29268    0.26474
O     -2.10333   -0.05007   -0.51812
O     -0.64106    0.01076    1.68341
H     -0.22828   -2.85443   -0.76923
H      0.53141    2.57598    0.50515
H      0.36283    2.70154   -1.02613
H      3.21857    0.75339   -0.03494
H      2.95084   -1.38720   -0.36511
H     -2.67914    0.33534   -1.19325
H     -2.38437    0.28060    0.43693
H     -0.79213   -1.01458    1.66698
Fe    -0.06310    0.04636   -0.48075
H      2.61691   -0.53584    1.62864
N     -0.93253   -2.47185    1.03290
H     -1.88513   -2.68965    0.71559
H     -0.54582   -3.29455    1.51254
N     -1.94509    0.54948    1.82075
H     -2.37163    0.13016    2.65796
H     -1.79979    1.53586    2.06131
