37

O      1.09069    0.46673    3.66880
N     -0.00321   -2.07539    0.38628
C      0.90162   -2.02368   -0.77700
H      0.34655   -1.57973   -1.61814
H      1.19518   -3.04416   -1.08171
C     -1.36405   -2.53331    0.04442
H     -1.83857   -2.79905    1.00044
H     -1.33027   -3.44030   -0.58488
C      2.11189   -1.18189   -0.44643
H      2.70504   -1.66045    0.34731
H      2.77299   -1.09215   -1.32440
C     -2.15554   -1.44954   -0.63662
H     -3.20522   -1.76840   -0.75165
H     -1.76227   -1.19046   -1.63609
C      1.54359    1.19212   -0.96452
H      2.52798    1.51261   -1.34873
H      0.98402    0.78930   -1.82249
C     -2.64758    0.92055   -0.25902
H     -3.12979    1.40135    0.60407
H     -3.40502    0.72148   -1.03219
C     -1.51799    1.76567   -0.79459
H     -1.06959    1.29822   -1.68321
H     -1.88361    2.76390   -1.09986
C      0.82186    2.36248   -0.33523
H      1.41138    2.75867    0.50620
H      0.67193    3.18432   -1.05644
N     -0.46347    1.89998    0.22404
Fe    -0.19700   -0.04795    1.07709
N      1.68063    0.13480    0.03765
O     -2.08998   -0.30948    0.22312
H      2.30927    0.45415    0.77750
N      0.46267   -2.80764    1.49213
H      1.29223   -2.35900    1.87714
H      0.70704   -3.76421    1.21382
N     -0.96957    2.59858    1.32885
H     -1.18949    3.57019    1.08292
H     -0.27271    2.58897    2.07432
