45

O     -0.35244   -3.16868    0.50825
Fe    -0.20731   -2.14738    1.99319
N      1.90184   -2.27652    2.46688
N      0.30426   -0.26138    1.18591
N     -2.24426   -1.81940    2.60281
O     -0.14194   -2.00285    4.17230
C     -0.02456   -0.18339   -0.24515
C      1.76147   -0.09624    1.38269
C      2.24980   -0.84885    2.59828
C      2.70623   -2.93208    1.42859
C     -0.43037    0.76250    1.96538
C     -1.93777    0.61311    2.00706
C     -2.47808   -0.41015    2.97923
C     -3.12795   -2.23585    1.50328
C      1.09164   -2.34818    4.78170
C      1.89721   -3.04038    3.71156
C     -1.35304   -2.38166    4.82816
C     -2.35026   -2.72733    3.73980
H     -2.94243   -3.28999    1.26465
H     -4.18064   -2.10426    1.79992
H     -2.91814   -1.63359    0.61247
H      0.25112    0.80717   -0.64507
H      0.51465   -0.97091   -0.78491
H     -1.09749   -0.34358   -0.39756
H      2.01079    0.97356    1.48276
H      2.26852   -0.44972    0.47660
H      2.55216   -2.43418    0.46607
H      3.77548   -2.90036    1.69707
H      2.38263   -3.97370    1.32563
H      1.76904   -0.44297    3.49668
H      3.33913   -0.71529    2.71802
H      2.91006   -3.31417    4.05533
H     -1.19257   -3.27184    5.45466
H     -1.70172   -1.55596    5.46868
H     -2.16158   -3.74348    3.35852
H     -2.02026   -0.24141    3.96223
H     -3.56484   -0.27543    3.10906
H     -2.33208    1.58555    2.34363
H     -2.36011    0.48383    1.00023
H     -0.03083    0.74961    2.99161
H     -0.17326    1.74651    1.53304
H      1.59141   -1.44054    5.16110
H      0.94550   -3.02786    5.63433
Br     0.96021   -4.71824    3.34697
Br    -4.10113   -2.78839    4.54694
