22

O      0.43808   -0.06304   -2.01333
O     -0.13176   -2.17943   -0.07121
O      0.10773    2.16127   -0.26153
P      2.38050   -0.30841    0.04443
O     -2.03129   -0.06580   -0.73843
O     -0.64106    0.01076    1.68341
H     -0.22828   -2.85443   -0.76923
H      0.53141    2.57598    0.50515
H      0.36283    2.70154   -1.02613
H      3.29061    0.73766   -0.25525
H      3.02288   -1.40293   -0.58542
H     -2.60710    0.31961   -1.41356
H     -2.31233    0.26487    0.21662
H     -0.79213   -1.01458    1.66698
Fe     0.00894    0.03063   -0.70106
H      2.68895   -0.55157    1.40833
N     -0.93253   -2.47185    1.03290
H     -1.88513   -2.68965    0.71559
H     -0.54582   -3.29455    1.51254
N     -1.94509    0.54948    1.82075
H     -2.37163    0.13016    2.65796
H     -1.79979    1.53586    2.06131
