19

O      0.63500   -0.17199   -1.77512
O     -0.00226   -2.16667   -0.26655
O      0.56065    2.02128   -0.36392
P      2.76806   -0.41388   -0.08638
P     -2.22553    0.28254   -0.92454
O     -0.19929    0.04417    1.85116
H     -0.57664   -2.57784    0.39682
H     -0.10497   -2.68951   -1.07719
H      0.70648    2.47050    0.48261
H      1.19869    2.40906   -0.98532
H      3.31853   -1.48092   -0.84581
H     -2.38730    1.24743   -1.95659
H      0.37968   -0.22737    2.57891
H     -1.02912    0.31306    2.27257
Fe     0.29222   -0.07996   -0.52135
H      3.36555   -0.68407    1.17894
H     -3.31886    0.66526   -0.09332
Br    -2.95938   -1.53617   -1.85346
Br     3.87937    1.31346   -0.77052
