37

O      0.77651    0.34116    3.03646
N      0.31097   -1.94982    1.01862
C      1.21580   -1.89811   -0.14466
H      0.66073   -1.45416   -0.98580
H      1.50936   -2.91859   -0.44937
C     -1.04987   -2.40774    0.67676
H     -1.52439   -2.67348    1.63278
H     -1.01609   -3.31473    0.04746
C      2.42607   -1.05632    0.18591
H      3.01922   -1.53488    0.97965
H      3.08717   -0.96658   -0.69206
C     -1.84136   -1.32397   -0.00428
H     -2.89104   -1.64283   -0.11931
H     -1.44809   -1.06489   -1.00375
C      1.85777    1.31769   -0.33218
H      2.84216    1.63818   -0.71639
H      1.29820    0.91487   -1.19015
C     -2.33340    1.04612    0.37332
H     -2.81561    1.52692    1.23641
H     -3.09084    0.84705   -0.39985
C     -1.20381    1.89124   -0.16225
H     -0.75541    1.42379   -1.05087
H     -1.56943    2.88947   -0.46752
C      1.13604    2.48805    0.29711
H      1.72556    2.88424    1.13854
H      0.98611    3.30989   -0.42410
N     -0.14929    2.02555    0.85638
Fe     0.11718    0.07762    1.70943
N      1.99481    0.26037    0.66999
O     -1.77580   -0.18391    0.85546
H      2.62345    0.57972    1.40984
N      0.77685   -2.68207    2.12447
H      1.60641   -2.23343    2.50948
H      1.02122   -3.63864    1.84616
N     -0.65539    2.72415    1.96119
H     -0.87531    3.69576    1.71526
H      0.04147    2.71454    2.70666
