14
Cyclization: MECP
H      0.99712   -0.07995    2.19082
C      0.39058   -0.05245    1.29789
C     -1.01590   -0.02968    1.35966
H     -1.49092   -0.04067    2.33177
C     -1.80469    0.00567    0.23741
H     -2.88195    0.02281    0.30156
C     -1.18572    0.02005   -1.05657
N     -1.24437    0.04994   -2.59737
C      0.25079   -0.00407   -1.11636
C      0.72357    0.01194   -2.46576
C      0.98929   -0.03910    0.06104
F      2.33005   -0.06048   -0.02798
O     -0.09841    0.04360   -3.38404
H      1.79879   -0.00417   -2.67800
