22

O      0.52753   -0.27133   -2.48668
O     -0.66709   -2.13712   -0.38183
O     -0.31712    1.88676    0.20365
P      2.08884   -0.54837    0.27460
O     -2.35339    0.11938   -0.75358
O     -0.76755   -0.13725    1.74867
H     -0.72924   -2.43266    0.54358
H     -0.79500    1.94988    1.11693
H      0.08380    2.72046   -0.07606
H      3.01175    0.33303   -0.34105
H      2.52544   -1.81283   -0.19004
H     -2.71514    0.87660   -1.24004
H     -2.86977   -0.64808   -1.04523
H      0.06134   -0.08743    2.25404
Fe    -0.27470   -0.04800   -0.37200
H      2.58370   -0.56592    1.60695
N      0.19404   -3.08776   -1.01502
H     -0.43151   -3.85283   -1.30283
H      0.44633   -2.60182   -1.88377
N     -1.42320    1.10119    2.01296
H     -2.39675    0.90660    1.75224
H     -1.43649    1.24044    3.03273
