45

O     -0.39784   -3.48819    0.04368
Fe    -0.16191   -1.82787    2.45776
N      1.94724   -1.95701    2.93145
N      0.34966    0.05813    1.65048
N     -2.19886   -1.49989    3.06738
O     -0.09654   -1.68334    4.63687
C      0.02084    0.13612    0.21942
C      1.80687    0.22327    1.84726
C      2.29520   -0.52934    3.06285
C      2.75163   -2.61257    1.89316
C     -0.38497    1.08201    2.42995
C     -1.89237    0.93262    2.47163
C     -2.43268   -0.09064    3.44380
C     -3.08255   -1.91634    1.96785
C      1.13704   -2.02867    5.24627
C      1.94261   -2.72087    4.17613
C     -1.30764   -2.06215    5.29273
C     -2.30486   -2.40782    4.20437
H     -2.89703   -2.97048    1.72922
H     -4.13524   -1.78475    2.26449
H     -2.87274   -1.31408    1.07704
H      0.29652    1.12668   -0.18050
H      0.56005   -0.65140   -0.32034
H     -1.05209   -0.02407    0.06701
H      2.05619    1.29307    1.94733
H      2.31392   -0.13021    0.94117
H      2.59756   -2.11467    0.93064
H      3.82088   -2.58085    2.16164
H      2.42803   -3.65419    1.79020
H      1.81444   -0.12346    3.96125
H      3.38453   -0.39578    3.18259
H      2.95546   -2.99466    4.51990
H     -1.14717   -2.95233    5.91923
H     -1.65632   -1.23645    5.93325
H     -2.11618   -3.42397    3.82309
H     -1.97486    0.07810    4.42680
H     -3.51944    0.04408    3.57363
H     -2.28668    1.90506    2.80820
H     -2.31471    0.80334    1.46480
H      0.01457    1.06912    3.45618
H     -0.12786    2.06602    1.99761
H      1.63681   -1.12103    5.62567
H      0.99090   -2.70835    6.09890
Br     1.00561   -4.39873    3.81154
Br    -4.05573   -2.46888    5.01151
