81
09092b/opbe.log
O      0.00028   -0.00037   -1.22565
Fe    -0.00003   -0.00000    0.39682
N      0.00013   -0.00000    2.50229
N     -1.86931   -0.60894    0.65456
N      0.40680    1.92341    0.65453
N      1.46190   -1.31430    0.65444
N     -3.73239   -1.73732   -0.25546
N     -2.88068    0.14644   -1.29849
N      0.36105    4.10089   -0.25605
N      1.56709    2.42118   -1.29810
N      3.37099   -2.36224   -0.25591
N      1.31348   -2.56881   -1.29825
C     -1.40355   -0.09795    2.92810
H     -1.85159    0.90142    2.84212
H     -1.46567   -0.40948    3.98543
C     -2.13556   -1.04345    2.00848
H     -1.79823   -2.07978    2.18705
H     -3.21501   -1.02764    2.23265
C     -2.80468   -0.74793   -0.28981
C     -3.43779   -3.06130    0.23631
H     -2.36143   -3.17277    0.39076
H     -3.75855   -3.80650   -0.51119
H     -3.96670   -3.27483    1.18037
C     -5.09339   -1.52361   -0.70020
H     -5.27463   -0.45136   -0.84325
H     -5.78338   -1.89741    0.07450
H     -5.31208   -2.05660   -1.64069
C     -3.23138   -0.24250   -2.64331
H     -3.29932   -1.33475   -2.71045
H     -2.43709    0.09959   -3.32728
H     -4.18854    0.19949   -2.96677
C     -2.50632    1.52300   -1.11234
H     -2.30274    1.68517   -0.04844
H     -3.33284    2.17737   -1.43925
H     -1.59588    1.76621   -1.67916
C      0.61720    1.26473    2.92793
H      1.70663    1.15299    2.84155
H      0.37891    1.47446    3.98533
C      0.16434    2.37146    2.00835
H     -0.90176    2.59774    2.18703
H      0.71816    3.29819    2.23214
C      0.75426    2.80282   -0.28986
C     -0.93287    4.50788    0.23567
H     -1.56730    3.63148    0.39141
H     -1.41829    5.15731   -0.51238
H     -0.85320    5.07375    1.17909
C      1.22626    5.17273   -0.70142
H      2.24573    4.79408   -0.84390
H      1.24703    5.95777    0.07271
H      0.87401    5.62780   -1.64231
C      1.40556    2.91791   -2.64344
H      0.49302    3.52192   -2.71160
H      1.30562    2.05814   -3.32645
H      2.26647    3.52624   -2.96726
C      2.57267    1.40957   -1.11097
H      2.61129    1.15261   -0.04693
H      3.55237    1.79880   -1.43786
H      2.32894    0.49921   -1.67753
C      0.78694   -1.16663    2.92815
H      0.14535   -2.05430    2.84260
H      1.08793   -1.06432    3.98541
C      1.97160   -1.32799    2.00822
H      2.70074   -0.51798    2.18691
H      2.49741   -2.27094    2.23189
C      2.05007   -2.05463   -0.29016
C      4.36961   -1.44400    0.23523
H      3.92729   -0.45629    0.38883
H      5.17530   -1.34924   -0.51231
H      4.81913   -1.79423    1.17960
C      3.86775   -3.64760   -0.69979
H      3.03069   -4.34199   -0.84166
H      4.53744   -4.05662    0.07493
H      4.43812   -3.57066   -1.64063
C      1.82530   -2.67929   -2.64305
H      2.80493   -2.19146   -2.71101
H      1.13143   -2.16363   -3.32739
H      1.92160   -3.72951   -2.96539
C     -0.06566   -2.93300   -1.11126
H     -0.30745   -2.83730   -0.04725
H     -0.21898   -3.97608   -1.43773
H     -0.73182   -2.26662   -1.67819
