20
10/opbe.log
Fe    -0.00377   -0.37011   -0.04404
H      2.61656    0.96356   -1.31841
H     -3.16829    0.43637    0.76074
H     -2.61667    0.99007   -1.31971
H      1.12188    2.95219    0.75487
H      0.02668    2.81936   -1.12479
H     -1.04804    2.99749    0.75964
H     -0.52076    0.13603    2.65303
H     -3.00254   -1.12827   -0.80852
H      3.15347    0.42269    0.77041
H      0.67298   -0.84463    2.60961
H      2.99178   -1.15345   -0.79143
H     -0.25440   -3.05047    0.91322
H      0.03610   -3.03778   -0.61809
O      0.00339   -0.47275   -1.65799
O     -0.03158   -0.45943    2.06660
O      0.01439   -2.48057    0.17637
P     -2.34170    0.02742   -0.31885
P      0.02112    2.25871    0.17958
P      2.33390    0.00865   -0.31243
