22
12/opbe.log
H     -3.18246    0.37829    0.69687
P     -2.38287   -0.03932   -0.39867
Fe     0.00000   -0.34466   -0.26918
H      2.73684    0.88912   -1.40855
H      3.18245    0.37838    0.69686
H      1.08856    0.42833    2.76104
H     -2.73686    0.88905   -1.40854
H     -0.00004    2.85673   -1.38313
H      1.08588    3.03195    0.50232
H     -1.08596    3.03192    0.50232
H      0.00003   -1.45619    2.86469
H     -1.08856    0.42829    2.76106
H     -3.06610   -1.20389   -0.83712
H      3.06613   -1.20382   -0.83712
H      0.00005   -2.88969   -1.14155
H     -0.81616   -2.98897    0.27748
H      0.81628   -2.98893    0.27746
N      0.00005   -2.56150   -0.17012
O      0.00000   -0.33723   -1.89698
P      0.00000   -0.23518    2.13803
P      2.38287   -0.03925   -0.39868
P     -0.00003    2.31435   -0.07128
