22
13/opbe.log
N     -1.54728   -1.73134   -0.75648
H     -1.86024   -1.56906   -1.71974
H     -1.24142   -2.70864   -0.72390
H     -2.38629   -1.68858   -0.17108
O     -0.00560    0.30937   -1.89512
Fe     0.00535   -0.24379   -0.36929
N      1.55809   -1.72436   -0.77468
H      1.37136   -2.69146   -0.49367
H      1.67945   -1.73702   -1.79335
H      2.48038   -1.50379   -0.38781
P     -1.77814    1.42490    0.10429
H     -2.94078    1.18415   -0.67305
H     -2.34700    1.71011    1.37473
H     -1.42905    2.72253   -0.34565
P      1.73274    1.48337    0.07778
H      1.32350    2.76525   -0.36614
H      2.31161    1.79046    1.33853
H      2.88889    1.28742   -0.72158
P      0.03509   -0.81479    1.97346
H      1.15240   -1.54872    2.45343
H      0.01027    0.25324    2.90616
H     -1.02835   -1.61450    2.47060
