16
17/opbe.log
Fe     0.08013   -0.08168   -0.00002
N     -1.21510    1.58398    0.00091
N      1.74706    1.11733    0.00219
O     -0.75383   -0.72217   -1.73692
O      1.05502   -1.35003   -0.00063
H     -0.45942   -1.57232   -2.11077
H     -2.21277    1.33514   -0.00011
H     -1.10107    2.19932    0.81674
O     -0.75618   -0.72579    1.73446
H     -0.46227   -1.57681    2.10670
H     -1.55230   -0.45285    2.22002
H      2.32949    0.88844    0.81966
H      2.33087    0.88953   -0.81459
H     -1.54872   -0.44751   -2.22354
H      1.60891    2.13438    0.00276
H     -1.09988    2.20119   -0.81335
