14
19/opbe.log
O      1.71633    0.13307    0.00007
Fe     0.14011    0.00205    0.00001
O     -0.00301    1.01411   -1.73462
H     -0.73445    1.58160   -2.03643
O     -1.92944   -0.18206   -0.00007
H     -2.49148   -0.34651   -0.77676
O      0.28078   -1.98499    0.00032
H      1.13920   -2.44748    0.00045
H     -0.43363   -2.64529    0.00040
O     -0.00319    1.01467    1.73429
H      0.80584    1.30535    2.19564
H     -0.73467    1.58225    2.03586
H      0.80607    1.30463   -2.19598
H     -2.49154   -0.34623    0.77663
