63
202_1/opbe.log
O      0.75481   -0.00000   -2.35303
Fe     0.96793   -0.00000   -0.75809
N     -0.47186    1.38352   -0.25467
N      2.53727    1.39593   -0.54413
N      2.53726   -1.39593   -0.54413
N     -0.47186   -1.38352   -0.25467
N      1.26280    0.00000    1.31100
C     -1.44331    1.75688   -1.07345
H     -1.29615    1.53502   -2.13612
C     -2.61750    2.38640   -0.61270
C     -3.64985    2.79377   -1.49390
H     -3.53307    2.63422   -2.57003
C     -4.78592    3.39072   -0.98544
H     -5.58515    3.71219   -1.66013
C     -4.92537    3.59495    0.40748
H     -5.83296    4.07259    0.79022
C     -3.93322    3.20493    1.28976
H     -4.04761    3.37086    2.36485
C     -2.75665    2.59449    0.80110
C     -1.69234    2.17617    1.64067
H     -1.75987    2.33060    2.72109
C     -0.57429    1.59281    1.09227
C      0.65399    1.22439    1.85759
H      1.39019    2.03720    1.74225
H      0.45244    1.11567    2.93434
C      0.65398   -1.22439    1.85759
H      0.45244   -1.11567    2.93434
H      1.39019   -2.03719    1.74226
C     -0.57429   -1.59280    1.09227
C     -1.69234   -2.17616    1.64067
H     -1.75987   -2.33058    2.72110
C     -2.75666   -2.59449    0.80111
C     -3.93323   -3.20492    1.28976
H     -4.04762   -3.37084    2.36485
C     -4.92537   -3.59494    0.40748
H     -5.83297   -4.07258    0.79023
C     -4.78592   -3.39072   -0.98543
H     -5.58515   -3.71220   -1.66012
C     -3.64985   -2.79377   -1.49389
H     -3.53307   -2.63423   -2.57002
C     -2.61750   -2.38641   -0.61270
C     -1.44331   -1.75689   -1.07344
H     -1.29615   -1.53503   -2.13612
C      2.74138   -0.00000    1.37024
H      3.12226   -0.00000    2.40354
C      3.21785   -1.21096    0.60137
C      4.28102   -2.02929    0.96185
H      4.81948   -1.86369    1.89887
C      4.63577   -3.06836    0.09306
H      5.46665   -3.73497    0.34579
C      3.92375   -3.24700   -1.09410
H      4.18138   -4.04701   -1.79400
C      2.86751   -2.38200   -1.38263
H      2.27085   -2.46494   -2.29691
C      3.21785    1.21095    0.60137
C      4.28102    2.02929    0.96186
H      4.81948    1.86369    1.89888
C      4.63577    3.06836    0.09306
H      5.46665    3.73497    0.34579
C      3.92375    3.24700   -1.09410
H      4.18138    4.04701   -1.79400
C      2.86751    2.38200   -1.38263
H      2.27086    2.46493   -2.29692
