22
22/opbe.log
Fe     0.00313    0.12844   -0.06752
O      0.57129    0.47447    1.91680
O     -0.42083   -0.17525   -1.56864
O      0.13029   -1.85210    0.47908
N      1.44941    1.33365   -0.76148
O     -1.86886    0.53553    0.49169
C      2.59798    1.60491   -0.27041
H      3.31701    2.23773   -0.82091
H     -0.75448   -2.24991    0.56452
H      1.25897    1.71338   -1.69833
H     -2.02016    0.87255    1.39059
H      0.74192    1.29543    2.40462
H      0.72354   -0.26210    2.53150
H      2.89208    1.20619    0.71199
C     -3.06116    0.69600   -0.31768
H     -2.85677    0.22048   -1.28564
H     -3.89981    0.19202    0.18923
H     -3.27043    1.76946   -0.45285
C      0.94398   -2.74328   -0.32512
H      0.53259   -2.82879   -1.34395
H      1.95810   -2.32090   -0.34781
H      0.97026   -3.72762    0.17084
