23
23/opbe.log
Fe     0.08823   -0.05889   -0.09748
O      0.71527   -0.03597    1.90452
O     -0.45545   -0.12408   -1.58430
O     -1.30606   -1.29172    0.54478
O      1.95307   -0.10671   -0.78174
O     -0.48198    1.88104    0.23494
H     -1.27456   -1.54462    1.48343
H      1.99653   -0.27475   -1.74030
H      0.13727    2.53259   -0.14094
H      0.57164    0.75152    2.45553
H      1.34710   -0.59893    2.37960
C     -1.83038    2.28519   -0.11809
H     -2.51373    1.59878    0.39916
H     -1.98696    3.31250    0.25006
H     -1.97419    2.23404   -1.20957
C     -2.26311   -2.09883   -0.18658
H     -1.91618   -3.14443   -0.20811
H     -3.24108   -2.01454    0.31430
H     -2.31754   -1.68844   -1.20324
C      3.23294   -0.35500   -0.15694
H      3.39839   -1.44000   -0.05000
H      4.01754    0.09105   -0.78966
H      3.22641    0.14780    0.81844
