30
25/opbe.log
Fe    -0.38659   -0.06675    0.00645
N     -0.49255    0.72900    1.96330
O     -0.48415   -0.64185   -1.49232
N     -2.01833   -1.18629    0.50270
N      1.64398   -0.51366    0.00080
O     -0.71785    1.81903   -0.75283
C      1.66877   -1.98695    0.03537
H      2.71451   -2.33943    0.06316
H      1.16020   -2.35056    0.94173
H      1.17932   -2.38412   -0.86323
C      2.24565    0.00233   -1.24155
H      2.15360    1.09684   -1.26835
H      3.31538   -0.26583   -1.26485
H      1.74017   -0.43909   -2.10917
C      2.34781    0.04427    1.16383
H      1.94777   -0.37323    2.09686
H      3.41576   -0.22794    1.10691
H      2.28145    1.14138    1.15767
H     -1.40178    1.17504    2.12801
H     -0.38703    0.04270    2.71785
H      0.20172    1.45242    2.17052
H     -0.78214    1.76482   -1.72018
H     -2.37849   -1.18776    1.46402
C     -2.68481   -1.92637   -0.30187
H     -2.37411   -1.98759   -1.35637
H     -3.56175   -2.50205    0.04054
C     -0.55984    3.18430   -0.33905
H     -1.29374    3.81407   -0.86733
H     -0.76432    3.24239    0.73805
H      0.46364    3.53719   -0.55049
