58
2_CCDC1/opbe.log
O     -0.02504    0.00001   -1.80679
Fe    -0.05989    0.00000   -0.19560
N     -1.42484    1.68149   -0.36135
N      1.48477    1.62236   -0.15239
N      1.48477   -1.62236   -0.15239
N     -1.42484   -1.68148   -0.36136
C     -0.58841    2.64786   -1.09221
H     -1.11745    3.61317   -1.18554
H     -0.43827    2.24795   -2.10353
C      0.73341    2.86959   -0.40551
H      0.57594    3.36621    0.56100
H      1.34548    3.56154   -1.00866
C      2.38066    1.30883   -1.28697
H      3.11679    2.13020   -1.36841
H      1.76836    1.31957   -2.19870
C      3.14020    0.00000   -1.18991
H      3.83155    0.00000   -2.04872
H      3.80827    0.00000   -0.31516
C      2.38065   -1.30882   -1.28698
H      1.76836   -1.31956   -2.19871
H      3.11679   -2.13019   -1.36843
C      0.73341   -2.86958   -0.40553
H      1.34548   -3.56154   -1.00867
H      0.57594   -3.36621    0.56098
C     -0.58841   -2.64786   -1.09222
H     -1.11745   -3.61316   -1.18556
H     -0.43827   -2.24794   -2.10354
C     -2.57175   -1.27870   -1.19937
H     -3.29203   -2.11647   -1.20524
H     -2.19502   -1.16515   -2.22535
C     -3.26861    0.00000   -0.78343
H     -3.52056    0.00000    0.28826
H     -4.24490    0.00000   -1.29398
C     -2.57175    1.27871   -1.19937
H     -2.19503    1.16517   -2.22534
H     -3.29203    2.11648   -1.20523
C     -1.88688    2.22408    0.91372
H     -2.50082    3.12607    0.74542
H     -1.03522    2.48845    1.54971
H     -2.49411    1.47734    1.43833
C      2.25371    1.79983    1.07814
H      2.96335    2.63898    0.96967
H      2.82604    0.89910    1.31360
H      1.57747    2.01504    1.91366
C      2.25371   -1.79983    1.07813
H      2.96336   -2.63898    0.96965
H      1.57747   -2.01505    1.91365
H      2.82604   -0.89911    1.31360
C     -1.88688   -2.22408    0.91371
H     -2.50082   -3.12607    0.74540
H     -2.49412   -1.47735    1.43832
H     -1.03522   -2.48846    1.54970
N     -0.13693   -0.00001    1.81668
C     -0.18231   -0.00001    2.98020
C     -0.23756   -0.00001    4.41432
H      0.78434   -0.00002    4.83106
H     -0.77095   -0.89795    4.77104
H     -0.77094    0.89793    4.77104
