32
30/opbe.log
O      0.04845    1.02184    2.17844
Fe     0.05497    0.10802    0.87816
O      0.64261   -1.59028   -0.00961
C      1.89444   -1.62217   -0.70598
H      1.70637   -1.51328   -1.78780
H      2.40259   -2.58445   -0.52954
C     -0.35107   -2.62019   -0.17284
H     -0.45648   -3.13182    0.79840
H     -0.02915   -3.35030   -0.93124
C      2.69859   -0.48458   -0.11821
H      3.06572   -0.75715    0.88431
H      3.57696   -0.26623   -0.75106
C     -1.61361   -1.91943   -0.59699
H     -2.48515   -2.59191   -0.51530
H     -1.53154   -1.56263   -1.63854
C      1.43517    1.40464   -1.18169
H      2.29141    1.92216   -1.64826
H      1.08179    0.65021   -1.90165
C     -2.68124    0.21790   -0.20628
H     -3.11875    0.69557    0.68556
H     -3.49841   -0.23939   -0.78553
C     -1.87709    1.19604   -1.03530
H     -1.44091    0.70219   -1.91750
H     -2.51452    2.02117   -1.40141
C      0.33393    2.39536   -0.85460
H      0.70875    3.16490   -0.16162
H     -0.00070    2.91031   -1.77028
N     -0.78974    1.71213   -0.19900
N      1.85349    0.71250    0.04449
O     -1.79092   -0.79872    0.28476
H      2.30620    1.37102    0.68656
H     -1.17561    2.31038    0.53684
