33
31/opbe.log
N     -1.88011   -0.65865    0.23476
Fe     0.00548   -0.05587    0.81807
H     -2.28578   -1.30674    0.91733
C     -1.63806   -1.34400   -1.04558
C     -2.68936    0.57254    0.17740
O      0.26494   -0.80646    2.19783
H     -1.33525   -0.58725   -1.78480
H     -2.56375   -1.81473   -1.41926
H     -2.85270    0.89612    1.21859
H     -3.68108    0.37940   -0.26919
C     -0.54331   -2.37951   -0.87059
H     -0.88689   -3.18419   -0.20180
H     -0.29956   -2.84382   -1.84039
C     -1.96029    1.64840   -0.60778
H     -2.28326    2.64965   -0.28055
H     -2.10350    1.56931   -1.69820
C      1.72595   -1.26851   -1.09800
H      2.30053   -2.09675   -1.54927
H      1.29038   -0.68749   -1.92640
C      0.38471    2.53877   -0.40936
H      0.32629    3.13509    0.51877
H      0.14463    3.18695   -1.26757
C      1.71524    1.85547   -0.60534
H      1.76239    1.45038   -1.62624
H      2.54478    2.57415   -0.49654
C      2.63722   -0.41302   -0.23541
H      3.03356   -1.00670    0.60385
H      3.49941   -0.04794   -0.81811
N      1.87983    0.72174    0.33651
N      0.64094   -1.76877   -0.25698
O     -0.56344    1.45862   -0.32818
H      1.02090   -2.38725    0.46272
H      2.33738    1.03615    1.19797
