45
34/opbe.log
O     -0.18987   -0.92653    1.92131
Fe    -0.06734   -0.05973    0.56188
N     -2.05727   -0.22060    0.12779
N     -0.20842    1.85905   -0.22136
N      1.92030   -0.45440    0.33114
O     -0.05951   -1.61392   -0.86960
C      0.10993    2.80206    0.86350
C     -1.61576    2.04060   -0.66562
C     -2.21978    0.70671   -1.01000
C     -2.85960    0.15971    1.29937
C      0.71627    2.00661   -1.36619
C      2.15610    1.64052   -1.08175
C      2.43078    0.16470   -0.91189
C      2.64144    0.01057    1.52534
C     -1.33042   -2.13194   -1.25145
C     -2.31728   -1.63028   -0.22494
C      1.08501   -2.46374   -0.84281
C      1.98762   -1.93139    0.25042
H      2.20451   -0.45735    2.41739
H      3.70664   -0.26499    1.44708
H      2.57017    1.10104    1.61299
H     -0.02481    3.84308    0.52283
H     -0.55018    2.62029    1.72422
H      1.14959    2.67812    1.18764
H     -1.65851    2.72421   -1.52876
H     -2.17381    2.52820    0.14400
H     -2.59219    1.16617    1.64323
H     -3.93104    0.14373    1.03748
H     -2.66175   -0.55050    2.11194
H     -1.71015    0.27147   -1.88119
H     -3.28785    0.80642   -1.27057
H     -3.35433   -1.74160   -0.58694
H     -2.21123   -2.20406    0.70655
H      0.79379   -3.49920   -0.60307
H      1.55482   -2.46015   -1.84117
H      3.03137   -2.24434    0.07573
H      1.66785   -2.31215    1.22970
H      1.99156   -0.38008   -1.75840
H      3.51937   -0.01755   -0.93906
H      2.73425    1.95827   -1.96474
H      2.57504    2.23475   -0.25655
H      0.32791    1.37810   -2.18335
H      0.66265    3.05549   -1.70940
H     -1.55344   -1.80051   -2.27965
H     -1.32242   -3.23328   -1.24732
