23
35/opbe.log
Fe     0.95615   -0.00488    0.05905
O      2.54675    0.00931    0.15456
N      0.75459   -1.70421   -0.92230
N      0.71355    1.83813   -0.62495
N     -1.16150    0.00946   -0.15274
O      0.37238   -0.21992    2.06133
C     -1.57463   -1.36424   -0.51899
H     -1.91465   -1.91123    0.38083
H     -2.44425   -1.37069   -1.20128
C     -0.43948   -2.14640   -1.07257
C     -1.71735    0.43613    1.14509
H     -1.79336    1.54051    1.18755
H     -2.74663    0.06839    1.31238
C     -0.80200    0.06619    2.27031
C     -1.43309    0.99451   -1.22172
H     -1.37434    0.50080   -2.21052
H     -2.45549    1.41036   -1.15797
C     -0.39845    2.06449   -1.22258
H     -0.64395   -3.11616   -1.56025
H     -0.58959    3.00564   -1.76778
H     -1.18636    0.09525    3.31402
H      1.44543    2.55808   -0.66716
H      1.53357   -2.27692   -1.26963
