22
36/opbe.log
Fe     0.96030    0.13864   -0.00957
O      2.53248    0.36571    0.00784
N      1.00521   -1.81475    0.05232
O      0.42050    1.14772   -1.72281
N     -1.15128   -0.22938    0.00226
O      0.38437    1.27223    1.62480
C     -1.31857   -1.62469   -0.46275
H     -2.21788   -2.10521   -0.03502
H     -1.47451   -1.64407   -1.55871
C     -0.09374   -2.42541   -0.20624
C     -1.57514   -0.04781    1.40438
H     -2.64995    0.19554    1.50095
H     -1.43647   -0.98748    1.97562
C     -0.71035    0.96259    2.08980
C     -1.77679    0.75624   -0.90282
H     -2.67662    0.36270   -1.41152
H     -2.13834    1.63653   -0.33504
C     -0.78812    1.30335   -1.88065
H     -0.13781   -3.52639   -0.28639
H     -1.15289    1.89990   -2.74611
H     -1.04421    1.41149    3.05136
H      1.86074   -2.36989    0.18263
