30
38/opbe.log
Fe     0.76885    0.63027   -0.04344
O      1.79331    1.82672    0.14630
N     -0.60387    1.70762   -1.06315
N      2.10268   -0.88120    0.05298
C     -1.94013    1.20854   -0.68181
C     -2.16000   -0.27081   -0.95803
C      0.13548   -1.35996   -1.29252
C      1.42152   -1.94360   -0.72132
C     -1.06852   -1.50083    1.10653
C     -1.12569   -0.34004    2.06337
O     -0.04851    0.57552    1.77658
H     -3.16236   -0.50748   -0.56557
H     -0.12503   -1.92430   -2.20372
H      0.38862   -0.38593   -1.79190
H     -2.24025   -0.41763   -2.04890
H     -0.19051   -2.12168    1.34673
H     -1.92490   -2.13008    1.40079
H     -1.00398   -0.70266    3.09780
H     -2.08122    0.20718    2.00412
H      1.22836   -2.82069   -0.08736
H      2.08052   -2.27297   -1.53845
H     -2.70165    1.78752   -1.23580
H     -2.08032    1.46438    0.37714
C     -1.17068   -1.31821   -0.42801
H     -1.63327   -2.27411   -0.72134
H     -0.48953    2.69774   -0.81497
H     -0.46143    1.66422   -2.07983
H      0.10278    1.23473    2.47622
H      2.29894   -1.13310    1.02778
H      3.00333   -0.60557   -0.35459
