19
4/opbe.log
O     -2.13583   -0.13412   -0.04591
H     -2.60442   -0.26193   -0.88752
H     -2.79841   -0.23198    0.65548
O     -0.03197   -0.17070   -1.71669
O      2.10303    0.26785   -0.15353
N      0.23367   -2.10352    0.04304
O     -0.21174    2.06495   -0.13651
H      2.63181    0.87405    0.38985
H      2.53210    0.24724   -1.02581
H     -0.15661   -2.56143   -0.78843
H     -0.19164   -2.55047    0.86143
H      0.14331    2.48677   -0.93856
H     -1.12532    2.39341   -0.07721
Fe    -0.00576   -0.04669   -0.12090
H      1.23285   -2.33950    0.05707
N      0.09604    0.14794    1.98090
H      0.15470    1.14007    2.24011
H     -0.69281   -0.22677    2.51895
H      0.92829   -0.29039    2.39145
