48
41/opbe.log
O     -0.01810    0.10572   -2.28164
Fe     0.01469    0.00492   -0.64699
N     -1.64916   -1.30706   -0.44549
C     -2.25320   -1.22283    0.90535
C     -1.23920   -1.34789    2.03233
P      0.11991   -0.22411    1.60734
C      1.80613   -0.77339    1.97200
C      2.64721   -0.18993    0.84777
N      2.08651   -0.44198   -0.50440
C     -0.19370    1.46728    2.19316
C     -1.09381    2.14448    1.17608
N     -0.61789    1.99081   -0.21635
C     -1.64419    2.47058   -1.15339
C      0.62259    2.74390   -0.43431
H     -1.69716   -1.09951    3.00350
H      2.16620   -0.42982    2.95557
H      1.82229   -1.87447    1.98545
H     -0.83180   -2.36765    2.11918
H      0.78028    1.97277    2.28959
H     -0.65600    1.47011    3.19414
H     -1.19416    3.22014    1.40843
H     -2.10561    1.71904    1.22305
H      0.46917    3.81421   -0.21029
H      1.41683    2.36411    0.21996
H      0.92450    2.63977   -1.48418
H     -1.80133    3.55421   -1.01912
H     -1.32039    2.26670   -2.18182
H     -2.59218    1.95576   -0.95966
H      2.72889    0.90066    0.96713
H      3.67733   -0.58691    0.88877
C      2.15582   -1.87303   -0.83525
H      1.72724   -2.03317   -1.83288
H      3.20722   -2.20841   -0.84088
H      1.60633   -2.46419   -0.09510
C      2.86469    0.30779   -1.50639
H      2.41579    0.15798   -2.49634
H      2.86483    1.37529   -1.26177
H      3.90661   -0.05383   -1.51242
H     -3.02965   -2.00317    1.00128
H     -2.77109   -0.25595    0.96649
C     -1.12315   -2.65523   -0.69638
H     -0.37705   -2.92164    0.06062
H     -1.94217   -3.39407   -0.65502
H     -0.66833   -2.68787   -1.69444
C     -2.66925   -0.99970   -1.46150
H     -3.48476   -1.74055   -1.40955
H     -3.08559   -0.00291   -1.28141
H     -2.20788   -1.02339   -2.45643
