48
43/opbe.log
O      0.01237   -0.10650   -2.29421
Fe    -0.01926    0.15415   -0.66212
P      2.11480   -0.66909   -0.33314
C      2.22580   -1.19250    1.42306
C      1.62220   -0.11948    2.31880
P      0.00892    0.37584    1.61759
C     -0.34046    2.14724    1.83792
C     -1.16235    2.56811    0.63144
N     -0.56570    2.16106   -0.65874
C     -1.34823   -0.60665    2.35485
C     -1.57840   -1.86121    1.52710
P     -1.67514   -1.40856   -0.24722
C     -1.56578   -2.91476   -1.22299
C     -3.33096   -0.74087   -0.52299
H      1.51667   -0.45463    3.36372
H     -0.88909    2.34558    2.77302
H      0.61517    2.68984    1.90199
H      2.25105    0.78651    2.32979
H     -2.23850    0.04427    2.34041
H     -1.13039   -0.83247    3.41209
H     -2.49236   -2.39572    1.83753
H     -0.73937   -2.56878    1.63168
H     -4.08307   -1.51089   -0.28374
H     -3.50706    0.14500    0.10258
H     -3.42219   -0.46098   -1.58368
H     -2.42156   -3.57412   -1.00508
H     -1.56760   -2.63253   -2.28740
H     -0.62896   -3.44282   -0.99667
H     -2.16011    2.10584    0.67848
H     -1.31676    3.66256    0.63486
C      0.73487    2.79313   -0.89143
H      1.12244    2.45966   -1.86359
H      0.64634    3.89439   -0.89462
H      1.43883    2.49764   -0.10212
C     -1.49351    2.45511   -1.75812
H     -1.05346    2.10982   -2.70192
H     -2.43825    1.92320   -1.58893
H     -1.69456    3.53875   -1.81078
H      3.27356   -1.41162    1.69088
H      1.66650   -2.13898    1.50507
C      3.47072    0.48952   -0.61541
H      3.42625    1.32993    0.09092
H      4.42875   -0.04119   -0.48842
H      3.40281    0.87505   -1.64424
C      2.44925   -2.10474   -1.36224
H      3.46217   -2.49072   -1.16353
H      1.70735   -2.88959   -1.16116
H      2.35969   -1.79654   -2.41548
