49
47/opbe.log
Fe    -0.19185    0.20338   -0.50106
O      0.06101    0.65194   -2.02582
N     -1.04826   -1.63964   -0.79961
N     -1.60901    1.61560    0.11044
P      2.09312    0.33139   -0.30242
C     -1.80266   -1.79685    0.45323
C     -1.03059   -1.80196    1.76493
C      1.47704   -1.15046    1.97734
C      2.45003   -0.11696    1.42615
C     -0.26405    0.76524    1.94866
C     -1.64398    1.28457    1.55218
C     -2.91975    1.59078   -0.53617
C     -0.96381    2.91512   -0.12480
H     -1.83352   -1.82916    2.51940
H      1.89478   -1.50103    2.93331
H      1.51150   -2.03933    1.33064
H     -0.52699   -2.77431    1.88198
H      0.45133    1.16460    1.18234
H      0.10811    1.32569    2.81982
H     -1.92228    2.18276    2.12810
H     -2.42930    0.54048    1.73377
H     -1.59649    3.72818    0.27071
H      0.00846    2.95670    0.38378
H     -0.80894    3.05478   -1.20253
H     -3.55369    2.40435   -0.14317
H     -2.79247    1.72825   -1.61864
H     -3.42628    0.63738   -0.34028
H      2.45988    0.81253    2.01805
H      3.48011   -0.51376    1.45246
C      2.94076   -0.80147   -1.40773
H      2.59256   -0.62073   -2.43607
H      4.02340   -0.59920   -1.34329
H      2.75064   -1.84385   -1.12178
C      2.70435    1.98256   -0.64951
H      2.40337    2.25810   -1.67211
H      2.29745    2.71003    0.06662
H      3.80489    1.97869   -0.57401
H     -2.36877   -2.74632    0.40406
H     -2.56804   -1.00843    0.44538
C     -0.03153   -2.67092   -0.99505
H      0.67734   -2.67233   -0.16040
H     -0.50548   -3.66677   -1.04949
H      0.49794   -2.47861   -1.93650
C     -1.95311   -1.61313   -1.95780
H     -2.46452   -2.58580   -2.05452
H     -2.70529   -0.82677   -1.83218
H     -1.37175   -1.40741   -2.86533
C     -0.00710   -0.73259    2.22481
H     -0.11757   -0.79835    3.31707
