48
48/opbe.log
O     -0.43541   -0.42413   -1.97022
Fe    -0.65635   -0.08209   -0.41363
N      1.53009   -0.13101    0.24669
C      1.31891   -0.58996    1.64912
C      0.22576    0.15793    2.38535
N     -1.00847    0.36378    1.58354
C     -1.46782    1.77305    1.60415
C     -2.33030    2.05700    0.40234
N     -1.62440    1.70583   -0.84962
C     -2.09270   -0.55066    2.00651
C     -1.88352   -1.91422    1.41128
N     -1.78271   -1.81612   -0.05840
C     -1.31799   -3.08017   -0.64920
C     -3.07562   -1.47339   -0.66709
H     -0.01035   -0.41436    3.29596
H     -2.01574    1.99102    2.53692
H     -0.58090    2.41694    1.59747
H      0.58248    1.13603    2.72443
H     -3.05092   -0.12945    1.67512
H     -2.14277   -0.60235    3.10681
H     -2.70768   -2.59453    1.68916
H     -0.95636   -2.37212    1.78290
H     -3.81767   -2.25633   -0.43456
H     -3.45194   -0.52239   -0.27416
H     -2.95122   -1.40684   -1.75487
H     -2.12484   -3.82806   -0.57381
H     -1.06685   -2.91702   -1.70504
H     -0.44377   -3.45345   -0.10920
H     -3.26633    1.48061    0.43127
H     -2.62386    3.12108    0.38260
C     -0.59054    2.69645   -1.19305
H     -0.02345    2.33842   -2.06101
H     -1.07821    3.65100   -1.45327
H      0.08254    2.87077   -0.35117
C     -2.55657    1.61291   -1.98524
H     -2.00845    1.27200   -2.87288
H     -3.37114    0.91719   -1.76387
H     -2.98675    2.60949   -2.17946
H      2.25872   -0.52741    2.22188
H      1.07086   -1.65579    1.57622
C      2.29646    1.14419    0.17972
F      1.69094    2.02893    0.98131
F      3.53058    0.98346    0.60156
F      2.28762    1.61023   -1.04821
C      2.23792   -1.21252   -0.52708
F      3.33699   -1.58443    0.09645
F      1.40715   -2.25176   -0.57429
F      2.50753   -0.80622   -1.73767
