48
50/opbe.log
O     -0.26518    0.09793   -1.60937
Fe    -0.13923    0.04178   -0.01030
N      1.23803   -1.64884    0.05409
C      0.49467   -2.25182    1.19749
C      0.48918   -1.33494    2.40253
N     -0.06562    0.00190    2.05233
C      0.74929    1.17226    2.45494
C      0.54782    2.32709    1.49288
N      0.84312    1.93001    0.07757
C     -1.43918    0.13148    2.57427
C     -2.37467   -0.70391    1.75354
N     -2.23245   -0.36975    0.29485
C     -2.83444   -1.52924   -0.53919
C     -3.09938    0.86471    0.02661
H     -0.12933   -1.80498    3.18250
H      0.47212    1.50072    3.47118
H      1.79736    0.86994    2.49394
H      1.48737   -1.21535    2.83678
H     -1.72493    1.18719    2.56617
H     -1.47093   -0.19597    3.62775
H     -3.41782   -0.56979    2.07573
H     -2.15032   -1.76921    1.87282
F     -4.32653    0.69707    0.45946
F     -2.57130    1.86471    0.72925
F     -3.09265    1.12718   -1.24905
F     -4.13386   -1.58059   -0.37534
F     -2.53154   -1.36196   -1.79295
F     -2.32453   -2.66447   -0.07726
H     -0.49170    2.67964    1.50551
H      1.17356    3.18295    1.79116
C      2.35386    1.94972   -0.21639
F      2.59160    0.98050   -1.07295
F      2.73403    3.09967   -0.71491
F      3.01599    1.76986    0.90809
C      0.21822    2.92144   -0.92027
F      0.70405    2.68563   -2.10998
F     -1.08203    2.73592   -0.93221
F      0.46639    4.14886   -0.52146
H      0.90405   -3.23965    1.46137
H     -0.52271   -2.43526    0.83834
C      2.72436   -1.64510    0.41396
F      2.93601   -0.65794    1.27332
F      3.03311   -2.77893    1.01208
F      3.46567   -1.48041   -0.64326
C      1.08984   -2.47856   -1.22500
F      1.71994   -3.62499   -1.08110
F     -0.19443   -2.71202   -1.40415
F      1.56960   -1.80276   -2.23251
