18
6/opbe.log
O     -0.32228   -2.11101   -0.06431
H     -0.13704   -2.67388   -0.83361
H     -0.55662   -2.69481    0.67400
O      0.20144   -0.00000   -1.69289
O     -0.32244    2.11100   -0.06434
P      2.18708    0.00004    0.14879
O     -2.32178   -0.00008   -0.32001
O     -0.67812    0.00001    1.88399
H     -0.55682    2.69477    0.67397
H     -0.13723    2.67389   -0.83364
H      2.78620    1.11702   -0.48112
H      2.78622   -1.11694   -0.48109
H     -2.70758    0.76976   -0.77143
H     -2.70754   -0.76995   -0.77143
H     -0.15466    0.00006    2.69896
H     -1.61461   -0.00001    2.14045
Fe    -0.19233    0.00000   -0.14011
H      2.73943    0.00006    1.45650
