19
8/opbe.log
O      0.00002    2.13933    0.08982
H      0.00003    2.69227   -0.70743
H      0.00005    2.73712    0.85256
O      0.00001   -0.00002   -1.65375
O     -0.00003   -2.13933    0.08987
P     -2.42846    0.00001   -0.23071
P      2.42846   -0.00002   -0.23070
O     -0.00001    0.00004    2.04881
H     -0.00004   -2.73711    0.85262
H     -0.00002   -2.69227   -0.70737
H     -2.89905   -1.10715   -0.97774
H     -2.89905    1.10716   -0.97774
H      2.89904   -1.10718   -0.97774
H      2.89906    1.10713   -0.97774
H      0.77443    0.00003    2.63091
H     -0.77446    0.00006    2.63090
Fe     0.00000   -0.00000   -0.04331
H     -3.28320    0.00000    0.90390
H      3.28321   -0.00003    0.90390
