46
dk21_hklf4_tw1/opbe.log
O      0.81941   -0.00001   -1.84119
Fe     0.17651   -0.00001   -0.36665
N      1.43354    1.57560    0.26352
H      1.32334    1.68048    1.27461
N     -1.16646    1.55268   -0.90220
H     -1.00404    1.60118   -1.91152
N     -1.16644   -1.55271   -0.90218
H     -1.00402   -1.60122   -1.91150
N      1.43356   -1.57558    0.26354
H      1.32336   -1.68045    1.27463
N     -0.62270    0.00001    1.51284
C      0.88566   -2.76503   -0.39752
H      1.30436   -3.69187    0.03139
H      1.18982   -2.72511   -1.45532
C      0.88563    2.76503   -0.39755
H      1.18979    2.72510   -1.45536
H      1.30432    3.69188    0.03134
C     -0.62615    2.76542   -0.28478
H     -0.93673    2.77477    0.77266
H     -1.04284    3.67479   -0.75247
C     -2.58805    1.29122   -0.66781
H     -3.18249    2.13668   -1.05979
H     -2.75155    1.26580    0.42050
C     -1.06914    0.00002    2.59044
C     -2.58804   -1.29126   -0.66779
H     -2.75153   -1.26581    0.42052
H     -3.18246   -2.13673   -1.05975
C      2.84460    1.29116   -0.02915
H      3.46295    2.13578    0.32441
H      2.94679    1.24187   -1.12369
C      2.84462   -1.29113   -0.02913
H      2.94681   -1.24186   -1.12367
H      3.46298   -2.13574    0.32444
C     -0.62612   -2.76543   -0.28474
H     -1.04281   -3.67482   -0.75242
H     -0.93670   -2.77477    0.77270
C     -1.63007    0.00003    3.91256
H     -2.25498   -0.89848    4.05623
H     -2.25513    0.89846    4.05615
H     -0.82403    0.00013    4.66664
C     -3.06338   -0.00003   -1.30818
H     -4.16404   -0.00003   -1.26225
H     -2.82309   -0.00003   -2.38689
C      3.33285    0.00002    0.60243
H      3.13089    0.00003    1.68990
H      4.43146    0.00003    0.51970
