63
N2Py2Q/opbe.log
O      0.29561   -0.00000   -2.09298
Fe     0.63440    0.00001   -0.51688
N      1.36655    0.00002    1.42408
C      2.82598   -0.00001    1.17930
H      3.41015   -0.00002    2.11270
N     -0.73395    1.38525    0.32608
C      3.12214    1.21245    0.32986
N     -0.73397   -1.38522    0.32612
C      4.24318    2.02567    0.43361
H      4.98725    1.85306    1.21588
N      2.19116   -1.40609   -0.62145
C      4.38538    3.06927   -0.48908
H      5.25429    3.73324   -0.43622
N      2.19123    1.40606   -0.62148
C      3.41372    3.25590   -1.47388
H      3.50093    4.06005   -2.21010
C      2.31702    2.39424   -1.51152
H      1.52289    2.48137   -2.25970
C      3.12208   -1.21251    0.32988
C      4.24308   -2.02578    0.43364
H      4.98717   -1.85318    1.21589
C      4.38523   -3.06940   -0.48903
H      5.25411   -3.73341   -0.43617
C      3.41355   -3.25601   -1.47383
H      3.50071   -4.06017   -2.21003
C      2.31689   -2.39430   -1.51147
H      1.52275   -2.48140   -2.25965
C      0.88675    1.21777    2.08796
H      1.56143    2.04455    1.81112
H      0.93573    1.10992    3.18243
C     -0.49076    1.56905    1.62691
C     -1.43714    2.11521    2.50759
H     -1.18876    2.24574    3.56374
C     -2.67750    2.47143    2.01277
H     -3.44438    2.88371    2.67624
C     -2.96105    2.30981    0.64053
C     -4.20941    2.67869    0.07958
H     -4.98066    3.09130    0.73661
C     -4.43512    2.53124   -1.27299
H     -5.39643    2.82355   -1.70590
C     -3.41607    2.01709   -2.10539
H     -3.59683    1.92208   -3.18073
C     -2.19296    1.63456   -1.58893
H     -1.40951    1.23673   -2.23323
C     -1.93802    1.76086   -0.20735
C      0.88671   -1.21769    2.08800
H      0.93569   -1.10979    3.18247
H      1.56137   -2.04450    1.81121
C     -0.49080   -1.56896    1.62695
C     -1.43720   -2.11508    2.50765
H     -1.18883   -2.24556    3.56381
C     -2.67756   -2.47131    2.01283
H     -3.44445   -2.88354    2.67631
C     -2.96109   -2.30974    0.64058
C     -4.20943   -2.67865    0.07963
H     -4.98070   -3.09122    0.73666
C     -4.43512   -2.53125   -1.27296
H     -5.39643   -2.82358   -1.70587
C     -3.41606   -2.01715   -2.10536
H     -3.59680   -1.92219   -3.18071
C     -2.19295   -1.63461   -1.58890
H     -1.40949   -1.23680   -2.23320
C     -1.93804   -1.76084   -0.20730
