23

O      0.38035   -0.10774   -2.41221
O     -0.52170   -2.07818   -0.23040
O      0.08708    2.13902   -0.31843
P      2.09272   -0.28895    0.34917
N     -2.47690    0.36103   -0.44177
O     -0.64925    0.13074    1.73012
H     -0.44904   -2.37325    0.69366
H      0.25540    2.43204    0.59357
H      2.94884    0.66029   -0.25994
H      2.60703   -1.51825   -0.13135
H     -2.82962    1.24988   -0.07357
H     -2.70805    0.37600   -1.44021
H      0.00201    0.06919    2.44469
H     -1.49736    0.26955    2.17863
Fe    -0.34327    0.04856   -0.22075
H      2.60805   -0.29070    1.67369
H     -3.06982   -0.37313   -0.04232
N      1.16517    2.69351   -1.07327
H      0.81768    3.60816   -1.39149
H      1.18033    2.09519   -1.90674
N      0.34449   -2.95293   -0.95283
H      0.52376   -2.42326   -1.81327
H     -0.25295   -3.74360   -1.22961
