22

O      0.66075   -0.90674   -2.31425
N      2.79878   -0.75498   -0.41972
H      3.21989   -0.62371   -1.34293
H      3.07628   -1.69324   -0.11662
Fe     0.64797   -0.48887   -0.70087
H      3.26331   -0.09277    0.20717
P      0.74397    1.77856   -1.09444
H      0.11795    2.20401   -2.29602
H      0.11772    2.63129   -0.14732
P     -0.57184   -2.43827   -0.45717
H     -1.46757   -2.71585   -1.51914
H      0.29526   -3.56125   -0.51311
H     -1.34764   -2.74663    0.69093
P     -1.98622    0.47071   -0.94972
H     -2.37131    0.04025   -2.24560
H     -2.94231   -0.23275   -0.16537
H     -2.60801    1.75281   -0.92983
P      0.55024   -0.09961    1.55455
H      0.89256   -1.18413    2.41125
H     -0.72563    0.22698    2.09144
Br     1.82098    1.48133    2.32148
Br     2.72985    2.63933   -1.24779
