24

O     -0.20289    0.67446   -2.77049
N      2.21863    0.31741   -0.99505
H      2.48906    0.32288   -1.98306
H      2.61354   -0.53135   -0.57912
Fe     0.09395    0.31864   -0.89767
H      2.69391    1.10152   -0.54184
P      0.27629    3.03788   -0.55478
H      1.11728    3.57301   -1.56651
H     -0.87528    3.83357   -0.80306
H      0.79082    3.72520    0.58078
P     -0.20068   -2.18094   -1.32815
H     -0.75509   -2.53322   -2.58381
H      0.94590   -3.01171   -1.28481
H     -1.05685   -2.89094   -0.44426
P     -2.17340    0.73762   -0.49724
H     -2.78464    1.57445   -1.47674
H     -2.95543   -0.44055   -0.59964
P      0.11561   -0.19528    1.44340
H      0.14672    0.83963    2.41542
H     -0.96862   -0.96762    1.93215
N     -2.48291    1.22458    1.08522
H     -2.14961    2.15730    1.32756
H     -3.43548    1.09346    1.43467
Br     1.83201   -1.41892    1.97734
