29

O     -2.49053    2.15674    1.61173
Fe    -2.39153    2.18426    0.37357
N     -3.64503    3.84957    0.06238
O     -1.93534    1.69862   -2.01175
N     -0.30209    2.47699    0.45104
O     -3.65757    0.53575    0.32134
C     -4.89325    3.62740    0.81031
H     -5.56216    4.49642    0.68876
H     -5.39833    2.73129    0.42446
H     -4.66091    3.48883    1.87305
C     -2.89806    4.99231    0.60930
H     -1.96832    5.13974    0.04053
H     -3.50125    5.91379    0.53253
H     -2.66408    4.80322    1.66537
C     -3.93130    4.04329   -1.36411
H     -4.47312    3.16983   -1.75564
H     -4.57229    4.93110   -1.50516
H     -2.99690    4.20363   -1.91996
H     -1.31125    1.00478   -2.27108
H     -2.51814    1.81556   -2.77573
H      0.10378    2.26980    1.37109
H     -3.89519    0.33052    1.23967
C      0.53073    2.96780   -0.38471
H      1.59090    3.13746   -0.12867
H      0.19096    3.23292   -1.39713
C     -3.83574   -0.62515   -0.50286
H     -3.09655   -1.40344   -0.24832
H     -4.85722   -1.01616   -0.36816
H     -3.70702   -0.31171   -1.54583
