24

O     -0.28216    0.76946   -3.27056
N      2.29790    0.22241   -0.49498
H      2.56833    0.22788   -1.48299
H      2.69281   -0.62635   -0.07905
Fe     0.17322    0.22364   -0.39760
H      2.77318    1.00652   -0.04177
P      0.27629    3.03788   -0.55478
H      1.11728    3.57301   -1.56651
H     -0.87528    3.83357   -0.80306
H      0.79082    3.72520    0.58078
P     -0.20068   -2.18094   -1.32815
H     -0.75509   -2.53322   -2.58381
H      0.94590   -3.01171   -1.28481
H     -1.05685   -2.89094   -0.44426
P     -2.09413    0.64262    0.00283
H     -2.70537    1.47945   -0.97667
H     -2.87616   -0.53555   -0.09957
P      0.19488   -0.29028    1.94347
H      0.22599    0.74463    2.91549
H     -0.88935   -1.06262    2.43222
N     -2.40364    1.12958    1.58529
H     -2.07034    2.06230    1.82763
H     -3.35621    0.99846    1.93474
Br     1.91128   -1.51392    2.47741
