22

O      0.66585   -1.07389   -2.95960
N      2.79878   -0.75498   -0.41972
H      3.21989   -0.62371   -1.34293
H      3.07628   -1.69324   -0.11662
Fe     0.64287   -0.32172   -0.05552
H      3.26331   -0.09277    0.20717
P      0.73887    1.94571   -0.44909
H      0.11285    2.37116   -1.65067
H      0.11262    2.79844    0.49803
P     -0.57694   -2.27112    0.18818
H     -1.47267   -2.54870   -0.87379
H      0.29016   -3.39410    0.13224
H     -1.35274   -2.57948    1.33628
P     -1.98622    0.47071   -0.94972
H     -2.37131    0.04025   -2.24560
H     -2.94231   -0.23275   -0.16537
H     -2.60801    1.75281   -0.92983
P      0.54514    0.06754    2.19990
H      0.88746   -1.01698    3.05660
H     -0.73073    0.39413    2.73679
Br     1.81588    1.64848    2.96683
Br     2.72475    2.80648   -0.60244
