22

O      0.60240   -0.29217   -2.68405
O     -0.66709   -2.13712   -0.38183
O     -0.39199    1.90760    0.40102
P      2.01397   -0.52753    0.47197
O     -2.35339    0.11938   -0.75358
O     -0.76755   -0.13725    1.74867
H     -0.72924   -2.43266    0.54358
H     -0.86987    1.97072    1.31430
H      0.00893    2.74130    0.12131
H      2.93688    0.35387   -0.14368
H      2.45057   -1.79199    0.00733
H     -2.71514    0.87660   -1.24004
H     -2.86977   -0.64808   -1.04523
H      0.06134   -0.08743    2.25404
Fe    -0.34957   -0.02716   -0.17463
H      2.50883   -0.54508    1.80432
N      0.19404   -3.08776   -1.01502
H     -0.43151   -3.85283   -1.30283
H      0.44633   -2.60182   -1.88377
N     -1.42320    1.10119    2.01296
H     -2.39675    0.90660    1.75224
H     -1.43649    1.24044    3.03273
