33

O      6.91339   22.77154    7.11503
Fe     6.20734   21.65671    4.85606
N      5.96395   19.58670    5.39797
C      5.65602   18.70411    4.26468
C      4.49347   19.13936    3.38792
C      3.91246   21.68111    3.31725
C      4.40507   23.05673    2.88602
N      5.70829   23.32467    3.50719
C      5.83763   20.62026    1.75388
C      7.24466   20.58769    2.29312
N      7.54637   21.07014    3.47377
H      4.38026   18.32783    2.65068
H      2.83440   21.62683    3.08668
H      3.54795   19.10446    3.95754
H      5.77017   21.55095    1.16479
H      5.78267   19.82510    0.99384
H      4.44294   23.13811    1.78997
H      3.67609   23.81140    3.22125
H      5.44118   17.68444    4.62964
H      6.56962   18.62171    3.65910
C      4.55993   20.45806    2.59714
H      3.82637   20.30283    1.78953
H      6.83783   19.28454    5.83828
H      5.26271   19.48763    6.13702
H      8.54244   21.04193    3.70162
H      6.45744   23.39863    2.81926
H      5.70919   24.20906    4.01862
N      8.15982   20.09667    1.45586
H      9.15112   20.10703    1.67780
H      7.90486   19.74800    0.53826
N      4.09671   21.63197    4.77191
H      3.66296   22.43909    5.22886
H      3.64160   20.81040    5.16898
