24

O     -0.16870    0.63347   -2.55477
N      2.18444    0.35840   -1.21077
H      2.45487    0.36387   -2.19878
H      2.57935   -0.49036   -0.79484
Fe     0.05976    0.35963   -1.11339
H      2.65972    1.14251   -0.75756
P      0.27629    3.03788   -0.55478
H      1.11728    3.57301   -1.56651
H     -0.87528    3.83357   -0.80306
H      0.79082    3.72520    0.58078
P     -0.20068   -2.18094   -1.32815
H     -0.75509   -2.53322   -2.58381
H      0.94590   -3.01171   -1.28481
H     -1.05685   -2.89094   -0.44426
P     -2.20759    0.77861   -0.71296
H     -2.81883    1.61544   -1.69246
H     -2.98962   -0.39956   -0.81536
P      0.08142   -0.15429    1.22768
H      0.11253    0.88062    2.19970
H     -1.00281   -0.92663    1.71643
N     -2.51710    1.26557    0.86950
H     -2.18380    2.19829    1.11184
H     -3.46967    1.13445    1.21895
Br     1.79782   -1.37793    1.76162
