33

O      6.90794   22.76293    7.09759
Fe     6.21279   21.66532    4.87350
N      5.96940   19.59531    5.41541
C      5.66147   18.71272    4.28212
C      4.49892   19.14797    3.40536
C      3.91791   21.68972    3.33469
C      4.41052   23.06534    2.90346
N      5.71374   23.33328    3.52463
C      5.84308   20.62887    1.77132
C      7.25011   20.59630    2.31056
N      7.55182   21.07875    3.49121
H      4.38571   18.33644    2.66812
H      2.83985   21.63544    3.10412
H      3.55340   19.11307    3.97498
H      5.77562   21.55956    1.18223
H      5.78812   19.83371    1.01128
H      4.44839   23.14672    1.80741
H      3.68154   23.82001    3.23869
H      5.44663   17.69305    4.64708
H      6.57507   18.63032    3.67654
C      4.56538   20.46667    2.61458
H      3.83182   20.31144    1.80697
H      6.84328   19.29315    5.85572
H      5.26816   19.49624    6.15446
H      8.54789   21.05054    3.71906
H      6.46289   23.40724    2.83670
H      5.71464   24.21767    4.03606
N      8.16527   20.10528    1.47330
H      9.15657   20.11564    1.69524
H      7.91031   19.75661    0.55570
N      4.10216   21.64058    4.78935
H      3.66841   22.44770    5.24630
H      3.64705   20.81901    5.18642
