23

O      0.33557   -0.54742   -2.22402
O     -0.62500   -2.16225    0.25826
O      0.18933    2.08207   -0.28257
P      2.30972   -0.55754    0.05634
N     -2.31516    0.32153   -0.43601
O     -0.47882    0.27163    1.69224
H     -1.06819   -2.57214    1.01530
H     -0.50236   -2.85155   -0.41158
H      3.16724    0.33118   -0.64201
H      2.77127   -1.79303   -0.46383
H     -2.49995    1.05595   -1.12458
H     -2.82861   -0.50117   -0.76580
H     -0.05123   -0.17854    2.43422
H     -0.23636    1.24145    1.77340
Fe    -0.21680   -0.12518   -0.18794
H      2.94239   -0.56589    1.32942
H     -2.76584    0.60953    0.43730
N      0.24389    2.71179    0.98275
H      1.19077    3.09130    1.11489
H     -0.41483    3.50186    0.97497
N      0.49817    2.81617   -1.41346
H     -0.13512    3.62353   -1.46170
H      1.46051    3.16516   -1.32741
