53

O      5.86725   23.17755    7.36085
Fe     6.40636   22.40499    5.35935
P      6.06890   20.25281    5.88732
C      5.83340   18.96934    4.61221
C      4.76625   19.14520    3.53526
C      4.25928   21.61669    3.49401
C      4.49300   23.01791    2.93165
P      5.12506   23.96155    4.35403
C      5.95438   20.61061    1.78753
C      7.33756   20.69353    2.40465
P      7.71105   22.04297    3.56826
C      9.31799   21.56211    4.26696
C      8.14384   23.44859    2.50494
H      4.86206   18.28109    2.85823
H      5.02077   21.58559    4.39724
H      3.78480   19.01131    4.01606
H      5.79052   21.47666    1.12706
H      5.97969   19.75093    1.09746
H      8.08703   20.80515    1.60173
H      7.60423   19.76588    2.92502
H      8.97625   23.15743    1.84450
H      7.29274   23.75367    1.88170
H      8.46290   24.29765    3.12691
H     10.04876   21.38518    3.46093
H      9.69597   22.36643    4.91751
H      9.20093   20.64618    4.86289
H      5.28412   23.00664    2.17162
H      3.59300   23.45262    2.46676
C      3.71658   24.26396    5.43962
H      4.08036   24.82308    6.31436
H      2.94409   24.84782    4.91373
H      3.30439   23.30867    5.79008
C      5.66354   25.59889    3.82686
H      6.06781   26.13187    4.70207
H      6.43364   25.54528    3.04858
H      4.79200   26.15552    3.44464
H      5.57319   18.07065    5.20057
H      6.82530   18.75067    4.19326
C      4.40247   20.31198    6.78634
H      3.70919   20.78220    6.06740
H      4.12197   19.24691    6.87763
C      7.18773   19.50102    7.09074
H      6.80053   18.51285    7.38895
H      8.19798   19.38324    6.67357
H      7.24178   20.15821    7.96883
C      4.72897   20.41005    2.67120
H      3.90366   20.24616    1.95376
N      4.38737   20.95629    8.02662
H      4.62842   21.94759    7.98329
H      4.86427   20.47517    8.78327
N      2.96309   21.46010    4.00882
H      2.32597   22.23852    3.89091
H      2.51029   20.56749    3.84765
