33

O      6.78254   22.56493    6.69638
Fe     6.33819   21.86332    5.27471
N      6.09480   19.79331    5.81662
C      5.78687   18.91072    4.68333
C      4.62432   19.34597    3.80657
C      4.04331   21.88772    3.73590
C      4.53592   23.26334    3.30467
N      5.83914   23.53128    3.92584
C      5.96848   20.82687    2.17253
C      7.37551   20.79430    2.71177
N      7.67722   21.27675    3.89242
H      4.51111   18.53444    3.06933
H      2.96525   21.83344    3.50533
H      3.67880   19.31107    4.37619
H      5.90102   21.75756    1.58344
H      5.91352   20.03171    1.41249
H      4.57379   23.34472    2.20862
H      3.80694   24.01801    3.63990
H      5.57203   17.89105    5.04829
H      6.70047   18.82832    4.07775
C      4.69078   20.66467    3.01579
H      3.95722   20.50944    2.20818
H      6.96868   19.49115    6.25693
H      5.39356   19.69424    6.55567
H      8.67329   21.24854    4.12027
H      6.58829   23.60524    3.23791
H      5.84004   24.41567    4.43727
N      8.29067   20.30328    1.87451
H      9.28197   20.31364    2.09645
H      8.03571   19.95461    0.95691
N      4.22756   21.83858    5.19056
H      3.79381   22.64570    5.64751
H      3.77245   21.01701    5.58763
