29

O     12.03623    7.21618   13.03739
Fe    13.25593    7.49158   11.78791
N     14.72434    7.75517   10.06295
N     12.11745    8.27345   10.26228
O     14.80755    8.58389   12.63655
N     13.82338    5.56138   11.35773
C     14.20769    8.87345    9.24401
H     14.55614    8.77152    8.19831
C     12.71050    8.82502    9.27152
C     16.01894    7.98236   10.69140
H     16.48435    7.00567   10.91947
H     16.74228    8.50323   10.04145
C     15.89201    8.64741   12.04006
C     14.68849    6.48892    9.32847
H     13.89865    6.52207    8.55468
H     15.62448    6.29308    8.77209
C     14.34558    5.34028   10.21066
H     12.15500    9.33521    8.46650
H     14.51985    4.31837    9.83121
H     13.56469    4.73615   11.90834
H     11.09370    8.32706   10.27112
C     14.60199   10.26235    9.73377
H     14.26996   10.43729   10.76673
H     15.68541   10.42289    9.64886
H     14.12417   11.02210    9.09626
C     17.06521    9.31263   12.62637
H     16.94596    9.45441   13.70908
H     17.99698    8.77502   12.38555
H     17.15650   10.30824   12.14961
