18

H 0.000000 0.000000 0.000000
H 0.000000 0.000000 2.878788
H 0.000000 0.000000 5.757576
H 0.000000 0.000000 8.636364
H 0.000000 0.000000 11.515152
H 0.000000 0.000000 14.393939
H 0.000000 0.000000 17.272727
H 0.000000 0.000000 20.151515
H 0.000000 0.000000 23.030303
H 0.000000 0.000000 25.909091
H 0.000000 0.000000 28.787879
H 0.000000 0.000000 31.666667
H 0.000000 0.000000 34.545455
H 0.000000 0.000000 37.424242
H 0.000000 0.000000 40.303030
H 0.000000 0.000000 43.181818
H 0.000000 0.000000 46.060606
H 0.000000 0.000000 48.939394
