36

O      7.44730   22.46846    6.50667
Fe     6.36161   21.90485    5.34515
N      5.58828   20.20140    6.12022
C      5.80118   19.20124    5.04426
C      4.81623   19.40196    3.89758
C      3.94564   21.91932    3.30341
C      4.67435   23.24562    3.51979
N      5.14686   23.46952    4.89872
C      5.94068   20.82957    2.02083
C      7.33935   20.82850    2.57593
O      7.49755   21.76332    3.67893
H      4.99437   18.53591    3.24060
H      3.42078   22.13775    2.35792
H      3.81077   19.22090    4.31072
H      5.77925   21.74283    1.42645
H      5.96103   20.01455    1.27693
H      8.05054   21.13525    1.79174
H      7.64175   19.82936    2.93190
H      5.54298   23.34573    2.85327
H      3.97671   24.05974    3.25707
H      6.84271   19.34761    4.70430
C      4.72570   20.60653    2.93420
H      3.99184   20.17809    2.23259
H      6.10625   19.93683    6.96499
H      4.59936   20.21893    6.39071
H      8.43528   21.98735    3.79370
H      5.64534   24.36197    4.97900
H      4.35257   23.53977    5.54388
C      2.85517   21.70495    4.33773
H      2.20232   22.58941    4.41239
H      2.21045   20.85528    4.06951
H      3.25205   21.50209    5.34635
C      5.69708   17.79475    5.60970
H      5.93522   17.05326    4.83281
H      6.40188   17.64505    6.44283
H      4.67441   17.59626    5.96912
