18

O      0.73086   -0.09316   -2.26006
O     -0.31483   -2.07836   -0.01946
O      0.41725    2.07307    0.02603
N      2.25405   -0.39423    0.32515
O     -1.87800    0.34074   -0.54394
O     -0.33312    0.05252    1.71435
H     -0.53829   -2.49802    0.83141
H      0.33800    2.52877    0.88392
H      2.84923    0.34164   -0.06915
H      2.57201   -1.26377   -0.11532
H     -2.16696    1.17628   -0.94383
H     -2.43112   -0.34195   -0.95570
H      0.09815   -0.02801    2.57767
H     -1.27174    0.21562    1.89506
Fe     0.22787   -0.03005   -0.23153
H      2.49889   -0.46503    1.31669
Br     1.22677    3.27302   -1.13174
Br     0.08803   -3.45727   -1.19114
