23

O      0.25711   -0.08112   -2.03899
O     -0.52170   -2.07818   -0.23040
O      0.08708    2.13902   -0.31843
P      2.21596   -0.31557   -0.02405
N     -2.35366    0.33441   -0.81499
O     -0.64925    0.13074    1.73012
H     -0.44904   -2.37325    0.69366
H      0.25540    2.43204    0.59357
H      3.07208    0.63367   -0.63316
H      2.73027   -1.54487   -0.50457
H     -2.70638    1.22326   -0.44679
H     -2.58481    0.34938   -1.81343
H      0.00201    0.06919    2.44469
H     -1.49736    0.26955    2.17863
Fe    -0.22003    0.02194   -0.59397
H      2.73129   -0.31732    1.30047
H     -2.94658   -0.39975   -0.41554
N      1.16517    2.69351   -1.07327
H      0.81768    3.60816   -1.39149
H      1.18033    2.09519   -1.90674
N      0.34449   -2.95293   -0.95283
H      0.52376   -2.42326   -1.81327
H     -0.25295   -3.74360   -1.22961
