24

O     -0.21844    0.69308   -2.86854
N      2.23418    0.29879   -0.89700
H      2.50461    0.30426   -1.88501
H      2.62909   -0.54997   -0.48107
Fe     0.10950    0.30002   -0.79962
H      2.70946    1.08290   -0.44379
P      0.27629    3.03788   -0.55478
H      1.11728    3.57301   -1.56651
H     -0.87528    3.83357   -0.80306
H      0.79082    3.72520    0.58078
P     -0.20068   -2.18094   -1.32815
H     -0.75509   -2.53322   -2.58381
H      0.94590   -3.01171   -1.28481
H     -1.05685   -2.89094   -0.44426
P     -2.15785    0.71900   -0.39919
H     -2.76909    1.55583   -1.37869
H     -2.93988   -0.45917   -0.50159
P      0.13116   -0.21390    1.54145
H      0.16227    0.82101    2.51347
H     -0.95307   -0.98624    2.03020
N     -2.46736    1.20596    1.18327
H     -2.13406    2.13868    1.42561
H     -3.41993    1.07484    1.53272
Br     1.84756   -1.43754    2.07539
