22

O      0.66175   -0.93967   -2.44136
N      2.79878   -0.75498   -0.41972
H      3.21989   -0.62371   -1.34293
H      3.07628   -1.69324   -0.11662
Fe     0.64697   -0.45594   -0.57376
H      3.26331   -0.09277    0.20717
P      0.74297    1.81149   -0.96733
H      0.11695    2.23694   -2.16891
H      0.11672    2.66422   -0.02021
P     -0.57284   -2.40534   -0.33006
H     -1.46857   -2.68292   -1.39203
H      0.29426   -3.52832   -0.38600
H     -1.34864   -2.71370    0.81804
P     -1.98622    0.47071   -0.94972
H     -2.37131    0.04025   -2.24560
H     -2.94231   -0.23275   -0.16537
H     -2.60801    1.75281   -0.92983
P      0.54924   -0.06668    1.68166
H      0.89156   -1.15120    2.53836
H     -0.72663    0.25991    2.21855
Br     1.81998    1.51426    2.44859
Br     2.72885    2.67226   -1.12068
