23

O      0.35038    0.01525   -2.25781
O     -0.34171   -2.14590   -0.36927
O      0.07797    2.13762   -0.25050
P      2.24647   -0.05260    0.34430
N     -2.30860    0.33869   -0.51743
O     -0.50235   -0.00774    1.78455
H     -0.29125   -2.72988    0.40104
H     -0.04963   -2.67424   -1.12796
H      0.21245    2.33993    0.69112
H      3.13104    0.02779   -0.76249
H      2.70644   -1.24844    0.95117
H     -2.72946    0.99303    0.14832
H     -2.48701    0.74727   -1.44020
H     -1.32007   -0.07150    2.31196
Fe    -0.17397   -0.01817   -0.35949
H      2.78303    0.93488    1.19959
H     -2.87440   -0.51505   -0.48019
N      0.63723   -0.17022    2.58810
H      0.63611    0.57358    3.29585
H      0.55295   -1.05986    3.09300
N      1.30087    2.56617   -0.86762
H      1.15845    3.56836   -1.05404
H      1.24400    2.10899   -1.78554
