22

O      0.66674   -0.11295   -2.71258
O     -0.13176   -2.17943   -0.07121
O      0.10773    2.16127   -0.26153
P      2.15184   -0.25850    0.74368
O     -2.25995   -0.01589   -0.03918
O     -0.64106    0.01076    1.68341
H     -0.22828   -2.85443   -0.76923
H      0.53141    2.57598    0.50515
H      0.36283    2.70154   -1.02613
H      3.06195    0.78757    0.44400
H      2.79422   -1.35302    0.11383
H     -2.83576    0.36952   -0.71431
H     -2.54099    0.31478    0.91587
H     -0.79213   -1.01458    1.66698
Fe    -0.21972    0.08054   -0.00181
H      2.46029   -0.50166    2.10758
N     -0.93253   -2.47185    1.03290
H     -1.88513   -2.68965    0.71559
H     -0.54582   -3.29455    1.51254
N     -1.94509    0.54948    1.82075
H     -2.37163    0.13016    2.65796
H     -1.79979    1.53586    2.06131
