24

O     -0.20756    0.68004   -2.79991
N      2.22330    0.31183   -0.96563
H      2.49373    0.31730   -1.95364
H      2.61821   -0.53693   -0.54970
Fe     0.09862    0.31306   -0.86825
H      2.69858    1.09594   -0.51242
P      0.27629    3.03788   -0.55478
H      1.11728    3.57301   -1.56651
H     -0.87528    3.83357   -0.80306
H      0.79082    3.72520    0.58078
P     -0.20068   -2.18094   -1.32815
H     -0.75509   -2.53322   -2.58381
H      0.94590   -3.01171   -1.28481
H     -1.05685   -2.89094   -0.44426
P     -2.16873    0.73204   -0.46782
H     -2.77997    1.56887   -1.44732
H     -2.95076   -0.44613   -0.57022
P      0.12028   -0.20086    1.47282
H      0.15139    0.83405    2.44484
H     -0.96395   -0.97320    1.96157
N     -2.47824    1.21900    1.11464
H     -2.14494    2.15172    1.35698
H     -3.43081    1.08788    1.46409
Br     1.83668   -1.42450    2.00676
