53

O      5.85494   23.19518    7.40655
Fe     6.41867   22.38736    5.31365
P      6.08121   20.23518    5.84162
C      5.84571   18.95171    4.56651
C      4.77856   19.12757    3.48956
C      4.27159   21.59906    3.44831
C      4.50531   23.00028    2.88595
P      5.13737   23.94392    4.30833
C      5.96669   20.59298    1.74183
C      7.34987   20.67590    2.35895
P      7.72336   22.02534    3.52256
C      9.33030   21.54448    4.22126
C      8.15615   23.43096    2.45924
H      4.87437   18.26346    2.81253
H      5.03308   21.56796    4.35154
H      3.79711   18.99368    3.97036
H      5.80283   21.45903    1.08136
H      5.99200   19.73330    1.05176
H      8.09934   20.78752    1.55603
H      7.61654   19.74825    2.87932
H      8.98856   23.13980    1.79880
H      7.30505   23.73604    1.83600
H      8.47521   24.28002    3.08121
H     10.06107   21.36755    3.41523
H      9.70828   22.34880    4.87181
H      9.21324   20.62855    4.81719
H      5.29643   22.98901    2.12592
H      3.60531   23.43499    2.42106
C      3.72889   24.24633    5.39392
H      4.09267   24.80545    6.26866
H      2.95640   24.83019    4.86803
H      3.31670   23.29104    5.74438
C      5.67585   25.58126    3.78116
H      6.08012   26.11424    4.65637
H      6.44595   25.52765    3.00288
H      4.80431   26.13789    3.39894
H      5.58550   18.05302    5.15487
H      6.83761   18.73304    4.14756
C      4.41478   20.29435    6.74064
H      3.72150   20.76457    6.02170
H      4.13428   19.22928    6.83193
C      7.20004   19.48339    7.04504
H      6.81284   18.49522    7.34325
H      8.21029   19.36561    6.62787
H      7.25409   20.14058    7.92313
C      4.74128   20.39242    2.62550
H      3.91597   20.22853    1.90806
N      4.39968   20.93866    7.98092
H      4.64073   21.92996    7.93759
H      4.87658   20.45754    8.73757
N      2.97540   21.44247    3.96312
H      2.33828   22.22089    3.84521
H      2.52260   20.54986    3.80195
