23

O     11.72198    6.97721   13.31013
Fe    13.35781    7.46151   11.54538
N     14.90053    7.78825    9.85661
N     12.27836    8.43683   10.10591
O     14.79176    8.87644   12.32342
N     14.07551    5.60162   11.17303
C     14.38581    8.90152    9.05438
H     14.83357    9.85406    9.39583
H     14.69245    8.82775    7.99558
C     12.91117    9.03914    9.16954
C     16.14382    8.06846   10.54255
H     16.56981    7.11443   10.91064
C     15.89237    8.88602   11.79052
C     14.94725    6.52194    9.12839
H     14.15959    6.50552    8.35573
H     15.90663    6.38575    8.59845
C     14.66644    5.37165   10.05114
H     12.39706    9.69541    8.44580
H     16.73770    9.45750   12.23150
H     13.86058    4.78661   11.75617
H     11.26654    8.59895   10.14722
Br    17.51697    8.86349    9.44854
Br    15.14079    3.70462    9.46433
