33

O      6.80435   22.59937    6.76615
Fe     6.31638   21.82888    5.20494
N      6.07299   19.75887    5.74685
C      5.76506   18.87628    4.61356
C      4.60251   19.31153    3.73680
C      4.02150   21.85328    3.66613
C      4.51411   23.22890    3.23490
N      5.81733   23.49684    3.85607
C      5.94667   20.79243    2.10276
C      7.35370   20.75986    2.64200
N      7.65541   21.24231    3.82265
H      4.48930   18.50000    2.99956
H      2.94344   21.79900    3.43556
H      3.65699   19.27663    4.30642
H      5.87921   21.72312    1.51367
H      5.89171   19.99727    1.34272
H      4.55198   23.31028    2.13885
H      3.78513   23.98357    3.57013
H      5.55022   17.85661    4.97852
H      6.67866   18.79388    4.00798
C      4.66897   20.63023    2.94602
H      3.93541   20.47500    2.13841
H      6.94687   19.45671    6.18716
H      5.37175   19.65980    6.48590
H      8.65148   21.21410    4.05050
H      6.56648   23.57080    3.16814
H      5.81823   24.38123    4.36750
N      8.26886   20.26884    1.80474
H      9.26016   20.27920    2.02668
H      8.01390   19.92017    0.88714
N      4.20575   21.80414    5.12079
H      3.77200   22.61126    5.57774
H      3.75064   20.98257    5.51786
