29

O     -2.52595    2.14689    2.05466
Fe    -2.35611    2.19411   -0.06936
N     -3.60961    3.85942   -0.38055
O     -1.93534    1.69862   -2.01175
N     -0.26667    2.48684    0.00811
O     -3.62215    0.54560   -0.12159
C     -4.85783    3.63725    0.36738
H     -5.52674    4.50627    0.24583
H     -5.36291    2.74114   -0.01847
H     -4.62549    3.49868    1.43012
C     -2.86264    5.00216    0.16637
H     -1.93290    5.14959   -0.40240
H     -3.46583    5.92364    0.08960
H     -2.62866    4.81307    1.22244
C     -3.89588    4.05314   -1.80704
H     -4.43770    3.17968   -2.19857
H     -4.53687    4.94095   -1.94809
H     -2.96148    4.21348   -2.36289
H     -1.31125    1.00478   -2.27108
H     -2.51814    1.81556   -2.77573
H      0.13920    2.27965    0.92816
H     -3.85977    0.34037    0.79674
C      0.56615    2.97765   -0.82764
H      1.62632    3.14731   -0.57160
H      0.22638    3.24277   -1.84006
C     -3.80032   -0.61530   -0.94579
H     -3.06113   -1.39359   -0.69125
H     -4.82180   -1.00631   -0.81109
H     -3.67160   -0.30186   -1.98876
