22

O      0.66013   -0.88648   -2.23603
N      2.79878   -0.75498   -0.41972
H      3.21989   -0.62371   -1.34293
H      3.07628   -1.69324   -0.11662
Fe     0.64859   -0.50913   -0.77909
H      3.26331   -0.09277    0.20717
P      0.74459    1.75830   -1.17266
H      0.11857    2.18375   -2.37424
H      0.11834    2.61103   -0.22554
P     -0.57122   -2.45853   -0.53539
H     -1.46695   -2.73611   -1.59736
H      0.29588   -3.58151   -0.59133
H     -1.34702   -2.76689    0.61271
P     -1.98622    0.47071   -0.94972
H     -2.37131    0.04025   -2.24560
H     -2.94231   -0.23275   -0.16537
H     -2.60801    1.75281   -0.92983
P      0.55086   -0.11987    1.47633
H      0.89318   -1.20439    2.33303
H     -0.72501    0.20672    2.01322
Br     1.82160    1.46107    2.24326
Br     2.73047    2.61907   -1.32601
