52

O      7.33062   23.03416    5.92604
Fe     6.41867   22.22414    5.04435
N      6.07099   20.49425    6.16501
C      5.81514   19.32016    5.29826
C      4.74439   19.59676    4.25826
P      5.15451   21.21539    3.56073
C      3.76079   22.29733    3.17016
C      4.33747   23.69074    3.33209
N      5.08220   23.85542    4.60429
C      6.19107   20.93248    2.03749
C      7.60573   20.75636    2.57838
N      7.96181   21.73866    3.61256
C      9.20372   21.33707    4.28347
C      8.13733   23.07087    3.02459
H      4.72253   18.83643    3.46103
H      3.38932   22.12439    2.14668
H      2.92804   22.09450    3.86082
H      3.73357   19.63561    4.69239
H      6.11708   21.88301    1.48361
H      8.33532   20.80070    1.74950
H      7.69006   19.75447    3.02517
H      8.93426   23.05771    2.25994
H      7.20324   23.39753    2.55081
H      8.41246   23.77604    3.81957
H     10.04682   21.35170    3.57141
H      9.40243   22.03014    5.11066
H      9.09768   20.31681    4.67164
H      5.04597   23.89909    2.51639
H      3.54676   24.45959    3.26833
C      4.15718   23.85649    5.74427
H      4.73094   23.96132    6.67338
H      3.45155   24.70196    5.66630
H      3.58267   22.92454    5.77228
C      5.79573   25.14262    4.58022
H      6.38721   25.24460    5.49689
H      6.46923   25.18279    3.71742
H      5.07074   25.97059    4.50341
H      5.52716   18.47608    5.94864
H      6.76725   19.05621    4.81870
C      4.85377   20.75164    7.03451
H      4.04981   21.03713    6.34244
H      5.12457   21.63886    7.62632
C      7.21072   20.19947    7.04617
H      6.98720   19.30581    7.65037
H      8.10780   20.01144    6.44830
H      7.39761   21.05765    7.70111
N      5.68135   19.87311    1.24659
H      5.59660   20.08270    0.25661
H      6.15604   18.98392    1.37308
N      4.50192   19.63596    7.80884
H      3.57742   19.25300    7.65098
H      4.71180   19.69026    8.79916
