33

O      6.80162   22.59506    6.75743
Fe     6.31911   21.83319    5.21366
N      6.07572   19.76318    5.75557
C      5.76779   18.88059    4.62228
C      4.60524   19.31584    3.74552
C      4.02423   21.85759    3.67485
C      4.51684   23.23321    3.24362
N      5.82006   23.50115    3.86479
C      5.94940   20.79674    2.11148
C      7.35643   20.76417    2.65072
N      7.65814   21.24662    3.83137
H      4.49203   18.50431    3.00828
H      2.94617   21.80331    3.44428
H      3.65972   19.28094    4.31514
H      5.88194   21.72743    1.52239
H      5.89444   20.00158    1.35144
H      4.55471   23.31459    2.14757
H      3.78786   23.98788    3.57885
H      5.55295   17.86092    4.98724
H      6.68139   18.79819    4.01670
C      4.67170   20.63454    2.95474
H      3.93814   20.47931    2.14713
H      6.94960   19.46102    6.19588
H      5.37448   19.66411    6.49462
H      8.65421   21.21841    4.05922
H      6.56921   23.57511    3.17686
H      5.82096   24.38554    4.37622
N      8.27159   20.27315    1.81346
H      9.26289   20.28351    2.03540
H      8.01663   19.92448    0.89586
N      4.20848   21.80845    5.12951
H      3.77473   22.61557    5.58646
H      3.75337   20.98688    5.52658
