52

O      7.47139   23.15920    6.06214
Fe     6.27790   22.09910    4.90825
N      5.93022   20.36921    6.02891
C      5.67437   19.19512    5.16216
C      4.60362   19.47172    4.12216
P      5.01374   21.09035    3.42463
C      3.62002   22.17229    3.03406
C      4.19670   23.56570    3.19599
N      4.94143   23.73038    4.46819
C      6.05030   20.80744    1.90139
C      7.46496   20.63132    2.44228
N      7.82104   21.61362    3.47646
C      9.06295   21.21203    4.14737
C      7.99656   22.94583    2.88849
H      4.58176   18.71139    3.32493
H      3.24855   21.99935    2.01058
H      2.78727   21.96946    3.72472
H      3.59280   19.51057    4.55629
H      5.97631   21.75797    1.34751
H      8.19455   20.67566    1.61340
H      7.54929   19.62943    2.88907
H      8.79349   22.93267    2.12384
H      7.06247   23.27249    2.41471
H      8.27169   23.65100    3.68347
H      9.90605   21.22666    3.43531
H      9.26166   21.90510    4.97456
H      8.95691   20.19177    4.53554
H      4.90520   23.77405    2.38029
H      3.40599   24.33455    3.13223
C      4.01641   23.73145    5.60817
H      4.59017   23.83628    6.53728
H      3.31078   24.57692    5.53020
H      3.44190   22.79950    5.63618
C      5.65496   25.01758    4.44412
H      6.24644   25.11956    5.36079
H      6.32846   25.05775    3.58132
H      4.92997   25.84555    4.36731
H      5.38639   18.35104    5.81254
H      6.62648   18.93117    4.68260
C      4.71300   20.62660    6.89841
H      3.90904   20.91209    6.20634
H      4.98380   21.51382    7.49022
C      7.06995   20.07443    6.91007
H      6.84643   19.18077    7.51427
H      7.96703   19.88640    6.31220
H      7.25684   20.93261    7.56501
N      5.54058   19.74807    1.11049
H      5.45583   19.95766    0.12051
H      6.01527   18.85888    1.23698
N      4.36115   19.51092    7.67274
H      3.43665   19.12796    7.51488
H      4.57103   19.56522    8.66306
