29

O     12.30108    7.27598   12.76607
Fe    12.99108    7.43178   12.05923
N     14.45949    7.69537   10.33427
N     11.85260    8.21365   10.53360
O     14.54270    8.52409   12.90787
N     13.55853    5.50158   11.62905
C     13.94284    8.81365    9.51533
H     14.29129    8.71172    8.46963
C     12.44565    8.76522    9.54284
C     15.75409    7.92256   10.96272
H     16.21950    6.94587   11.19079
H     16.47743    8.44343   10.31277
C     15.62716    8.58761   12.31138
C     14.42364    6.42912    9.59979
H     13.63380    6.46227    8.82600
H     15.35963    6.23328    9.04341
C     14.08073    5.28048   10.48198
H     11.89015    9.27541    8.73782
H     14.25500    4.25857   10.10253
H     13.29984    4.67635   12.17966
H     10.82885    8.26726   10.54244
C     14.33714   10.20255   10.00509
H     14.00511   10.37749   11.03805
H     15.42056   10.36309    9.92018
H     13.85932   10.96230    9.36758
C     16.80036    9.25283   12.89769
H     16.68111    9.39461   13.98040
H     17.73213    8.71522   12.65687
H     16.89165   10.24844   12.42093
