12

H 0.000000 0.000000 0.000000
H 0.000000 0.000000 2.563636
H 0.000000 0.000000 5.127273
H 0.000000 0.000000 7.690909
H 0.000000 0.000000 10.254545
H 0.000000 0.000000 12.818182
H 0.000000 0.000000 15.381818
H 0.000000 0.000000 17.945455
H 0.000000 0.000000 20.509091
H 0.000000 0.000000 23.072727
H 0.000000 0.000000 25.636364
H 0.000000 0.000000 28.200000
