22

O      0.55962   -0.28026   -2.57126
O     -0.66709   -2.13712   -0.38183
O     -0.34921    1.89569    0.28823
P      2.05675   -0.53944    0.35918
O     -2.35339    0.11938   -0.75358
O     -0.76755   -0.13725    1.74867
H     -0.72924   -2.43266    0.54358
H     -0.82709    1.95881    1.20151
H      0.05171    2.72939    0.00852
H      2.97966    0.34196   -0.25647
H      2.49335   -1.80390   -0.10546
H     -2.71514    0.87660   -1.24004
H     -2.86977   -0.64808   -1.04523
H      0.06134   -0.08743    2.25404
Fe    -0.30679   -0.03907   -0.28742
H      2.55161   -0.55699    1.69153
N      0.19404   -3.08776   -1.01502
H     -0.43151   -3.85283   -1.30283
H      0.44633   -2.60182   -1.88377
N     -1.42320    1.10119    2.01296
H     -2.39675    0.90660    1.75224
H     -1.43649    1.24044    3.03273
