45

O     -0.36946   -3.28849    0.33404
Fe    -0.19029   -2.02757    2.16740
N      1.91886   -2.15671    2.64109
N      0.32128   -0.14157    1.36012
N     -2.22724   -1.69959    2.77702
O     -0.12492   -1.88304    4.34651
C     -0.00754   -0.06358   -0.07094
C      1.77849    0.02357    1.55690
C      2.26682   -0.72904    2.77249
C      2.72325   -2.81227    1.60280
C     -0.41335    0.88231    2.13959
C     -1.92075    0.73292    2.18127
C     -2.46106   -0.29034    3.15344
C     -3.11093   -2.11604    1.67749
C      1.10866   -2.22837    4.95591
C      1.91423   -2.92057    3.88577
C     -1.33602   -2.26185    5.00237
C     -2.33324   -2.60752    3.91401
H     -2.92541   -3.17018    1.43886
H     -4.16362   -1.98445    1.97413
H     -2.90112   -1.51378    0.78668
H      0.26814    0.92698   -0.47086
H      0.53167   -0.85110   -0.61070
H     -1.08047   -0.22377   -0.22335
H      2.02781    1.09337    1.65697
H      2.28554   -0.32991    0.65081
H      2.56918   -2.31437    0.64028
H      3.79250   -2.78055    1.87128
H      2.39965   -3.85389    1.49984
H      1.78606   -0.32316    3.67089
H      3.35615   -0.59548    2.89223
H      2.92708   -3.19436    4.22954
H     -1.17555   -3.15203    5.62887
H     -1.68470   -1.43615    5.64289
H     -2.14456   -3.62367    3.53273
H     -2.00324   -0.12160    4.13644
H     -3.54782   -0.15562    3.28327
H     -2.31506    1.70536    2.51784
H     -2.34309    0.60364    1.17444
H     -0.01381    0.86942    3.16582
H     -0.15624    1.86632    1.70725
H      1.60843   -1.32073    5.33531
H      0.96252   -2.90805    5.80854
Br     0.97723   -4.59843    3.52118
Br    -4.08411   -2.66858    4.72115
