17

O      0.00000    0.00000    1.96667
Fe     0.00000    0.00000   -0.36667
O     -0.02532   -2.04942   -0.40843
O      0.01885    2.04941   -0.41215
O     -2.09136   -0.00340   -0.55696
O      2.09172    0.00000   -0.55291
O      0.00000    0.00000   -2.41667
H      0.26040   -2.63210   -1.13405
H      0.04961   -2.57039    0.41171
H     -0.25655    2.63228   -1.14153
H     -0.05040    2.57471    0.40565
H     -2.58023    0.46315    0.14730
H     -2.52460   -0.87680   -0.59474
H      2.52747    0.87055   -0.61747
H      2.57839   -0.44571    0.16625
H     -0.77522    0.08407   -2.99729
H      0.77001   -0.10212   -3.00125
