45

O     -0.33703   -3.06027    0.66587
Fe    -0.22272   -2.25579    1.83557
N      1.88643   -2.38493    2.30926
N      0.28885   -0.36979    1.02829
N     -2.25967   -1.92781    2.44519
O     -0.15735   -2.11126    4.01468
C     -0.03997   -0.29180   -0.40277
C      1.74606   -0.20465    1.22507
C      2.23439   -0.95726    2.44066
C      2.69082   -3.04049    1.27097
C     -0.44578    0.65409    1.80776
C     -1.95318    0.50470    1.84944
C     -2.49349   -0.51856    2.82161
C     -3.14336   -2.34426    1.34566
C      1.07623   -2.45659    4.62408
C      1.88180   -3.14879    3.55394
C     -1.36845   -2.49007    4.67054
C     -2.36567   -2.83574    3.58218
H     -2.95784   -3.39840    1.10703
H     -4.19605   -2.21267    1.64230
H     -2.93355   -1.74200    0.45485
H      0.23571    0.69876   -0.80269
H      0.49924   -1.07932   -0.94253
H     -1.11290   -0.45199   -0.55518
H      1.99538    0.86515    1.32514
H      2.25311   -0.55813    0.31898
H      2.53675   -2.54259    0.30845
H      3.76007   -3.00877    1.53945
H      2.36722   -4.08211    1.16801
H      1.75363   -0.55138    3.33906
H      3.32372   -0.82370    2.56040
H      2.89465   -3.42258    3.89771
H     -1.20798   -3.38025    5.29704
H     -1.71713   -1.66437    5.31106
H     -2.17699   -3.85189    3.20090
H     -2.03567   -0.34982    3.80461
H     -3.58025   -0.38384    2.95144
H     -2.34749    1.47714    2.18601
H     -2.37552    0.37542    0.84261
H     -0.04624    0.64120    2.83399
H     -0.18867    1.63810    1.37542
H      1.57600   -1.54895    5.00348
H      0.93009   -3.13627    5.47671
Br     0.94480   -4.82665    3.18935
Br    -4.11654   -2.89680    4.38932
