19

O      0.83164   -0.22478   -2.49433
O     -0.19890   -2.11388    0.45266
O      0.36401    2.07407    0.35529
P      2.57142   -0.36109    0.63283
P     -2.22553    0.28254   -0.92454
O     -0.19929    0.04417    1.85116
H     -0.77328   -2.52505    1.11603
H     -0.30161   -2.63672   -0.35798
H      0.50984    2.52329    1.20182
H      1.00205    2.46185   -0.26611
H      3.12189   -1.42813   -0.12660
H     -2.38730    1.24743   -1.95659
H      0.37968   -0.22737    2.57891
H     -1.02912    0.31306    2.27257
Fe     0.09558   -0.02717    0.19786
H      3.16891   -0.63128    1.89815
H     -3.31886    0.66526   -0.09332
Br    -2.95938   -1.53617   -1.85346
Br     3.68273    1.36625   -0.05131
