19

O      0.69081   -0.18697   -1.97922
O     -0.05807   -2.15169   -0.06245
O      0.50484    2.03626   -0.15982
P      2.71225   -0.39890    0.11772
P     -2.22553    0.28254   -0.92454
O     -0.19929    0.04417    1.85116
H     -0.63245   -2.56286    0.60092
H     -0.16078   -2.67453   -0.87309
H      0.65067    2.48548    0.68671
H      1.14288    2.42404   -0.78122
H      3.26272   -1.46594   -0.64171
H     -2.38730    1.24743   -1.95659
H      0.37968   -0.22737    2.57891
H     -1.02912    0.31306    2.27257
Fe     0.23641   -0.06498   -0.31725
H      3.30974   -0.66909    1.38304
H     -3.31886    0.66526   -0.09332
Br    -2.95938   -1.53617   -1.85346
Br     3.82356    1.32844   -0.56642
