23

O      0.41195   -0.11457   -2.50791
O     -0.52170   -2.07818   -0.23040
O      0.08708    2.13902   -0.31843
P      2.06112   -0.28212    0.44487
N     -2.50850    0.36786   -0.34607
O     -0.64925    0.13074    1.73012
H     -0.44904   -2.37325    0.69366
H      0.25540    2.43204    0.59357
H      2.91724    0.66712   -0.16424
H      2.57543   -1.51142   -0.03565
H     -2.86122    1.25671    0.02213
H     -2.73965    0.38283   -1.34451
H      0.00201    0.06919    2.44469
H     -1.49736    0.26955    2.17863
Fe    -0.37487    0.05539   -0.12505
H      2.57645   -0.28387    1.76939
H     -3.10142   -0.36630    0.05338
N      1.16517    2.69351   -1.07327
H      0.81768    3.60816   -1.39149
H      1.18033    2.09519   -1.90674
N      0.34449   -2.95293   -0.95283
H      0.52376   -2.42326   -1.81327
H     -0.25295   -3.74360   -1.22961
