37

O      0.86501    0.37653    3.21458
N      0.22247   -1.98519    0.84050
C      1.12730   -1.93348   -0.32278
H      0.57223   -1.48953   -1.16392
H      1.42086   -2.95396   -0.62749
C     -1.13837   -2.44311    0.49864
H     -1.61289   -2.70885    1.45466
H     -1.10459   -3.35010   -0.13066
C      2.33757   -1.09169    0.00779
H      2.93072   -1.57025    0.80153
H      2.99867   -1.00195   -0.87018
C     -1.92986   -1.35934   -0.18240
H     -2.97954   -1.67820   -0.29743
H     -1.53659   -1.10026   -1.18187
C      1.76927    1.28232   -0.51030
H      2.75366    1.60281   -0.89451
H      1.20970    0.87950   -1.36827
C     -2.42190    1.01075    0.19520
H     -2.90411    1.49155    1.05829
H     -3.17934    0.81168   -0.57797
C     -1.29231    1.85587   -0.34037
H     -0.84391    1.38842   -1.22899
H     -1.65793    2.85410   -0.64564
C      1.04754    2.45268    0.11899
H      1.63706    2.84887    0.96042
H      0.89761    3.27452   -0.60222
N     -0.23779    1.99018    0.67826
Fe     0.02868    0.04225    1.53131
N      1.90631    0.22500    0.49187
O     -1.86430   -0.21928    0.67734
H      2.53495    0.54435    1.23172
N      0.68835   -2.71744    1.94635
H      1.51791   -2.26880    2.33136
H      0.93272   -3.67401    1.66804
N     -0.74389    2.68878    1.78307
H     -0.96381    3.66039    1.53714
H     -0.04703    2.67917    2.52854
