18

O      0.61666   -0.07883   -1.79947
O     -0.20063   -2.09269   -0.48005
O      0.53145    2.05874   -0.43456
N      2.36825   -0.40856   -0.13544
O     -1.87800    0.34074   -0.54394
O     -0.33312    0.05252    1.71435
H     -0.42409   -2.51235    0.37082
H      0.45220    2.51444    0.42333
H      2.96343    0.32731   -0.52974
H      2.68621   -1.27810   -0.57591
H     -2.16696    1.17628   -0.94383
H     -2.43112   -0.34195   -0.95570
H      0.09815   -0.02801    2.57767
H     -1.27174    0.21562    1.89506
Fe     0.34207   -0.04438   -0.69212
H      2.61309   -0.47936    0.85610
Br     1.34097    3.25869   -1.59233
Br     0.20223   -3.47160   -1.65173
