23

O     11.84316    7.01308   13.17941
Fe    13.23663    7.42564   11.67610
N     14.77935    7.75238    9.98733
N     12.15718    8.40096   10.23663
O     14.67058    8.84057   12.45414
N     13.95433    5.56575   11.30375
C     14.26463    8.86565    9.18510
H     14.71239    9.81819    9.52655
H     14.57127    8.79188    8.12630
C     12.78999    9.00327    9.30026
C     16.02264    8.03259   10.67327
H     16.44863    7.07856   11.04136
C     15.77119    8.85015   11.92124
C     14.82607    6.48607    9.25911
H     14.03841    6.46965    8.48645
H     15.78545    6.34988    8.72917
C     14.54526    5.33578   10.18186
H     12.27588    9.65954    8.57652
H     16.61652    9.42163   12.36222
H     13.73940    4.75074   11.88689
H     11.14536    8.56308   10.27794
Br    17.39579    8.82762    9.57926
Br    15.01961    3.66875    9.59505
