45

O     -0.32001   -2.94045    0.84008
Fe    -0.23974   -2.37561    1.66136
N      1.86941   -2.50475    2.13505
N      0.27183   -0.48961    0.85408
N     -2.27669   -2.04763    2.27098
O     -0.17437   -2.23108    3.84047
C     -0.05699   -0.41162   -0.57698
C      1.72904   -0.32447    1.05086
C      2.21737   -1.07708    2.26645
C      2.67380   -3.16031    1.09676
C     -0.46280    0.53427    1.63355
C     -1.97020    0.38488    1.67523
C     -2.51051   -0.63838    2.64740
C     -3.16038   -2.46408    1.17145
C      1.05921   -2.57641    4.44987
C      1.86478   -3.26861    3.37973
C     -1.38547   -2.60989    4.49633
C     -2.38269   -2.95556    3.40797
H     -2.97486   -3.51822    0.93282
H     -4.21307   -2.33249    1.46809
H     -2.95057   -1.86182    0.28064
H      0.21869    0.57894   -0.97690
H      0.48222   -1.19914   -1.11674
H     -1.12992   -0.57181   -0.72939
H      1.97836    0.74533    1.15093
H      2.23609   -0.67795    0.14477
H      2.51973   -2.66241    0.13424
H      3.74305   -3.12859    1.36524
H      2.35020   -4.20193    0.99380
H      1.73661   -0.67120    3.16485
H      3.30670   -0.94352    2.38619
H      2.87763   -3.54240    3.72350
H     -1.22500   -3.50007    5.12283
H     -1.73415   -1.78419    5.13685
H     -2.19401   -3.97171    3.02669
H     -2.05269   -0.46964    3.63040
H     -3.59727   -0.50366    2.77723
H     -2.36451    1.35732    2.01180
H     -2.39254    0.25560    0.66840
H     -0.06326    0.52138    2.65978
H     -0.20569    1.51828    1.20121
H      1.55898   -1.66877    4.82927
H      0.91307   -3.25609    5.30250
Br     0.92778   -4.94647    3.01514
Br    -4.13356   -3.01662    4.21511
