18

O      0.83292   -0.10596   -2.67164
O     -0.41689   -2.06556    0.39212
O      0.31519    2.08587    0.43761
N      2.15199   -0.38143    0.73673
O     -1.87800    0.34074   -0.54394
O     -0.33312    0.05252    1.71435
H     -0.64035   -2.48522    1.24299
H      0.23594    2.54157    1.29550
H      2.74717    0.35444    0.34243
H      2.46995   -1.25097    0.29626
H     -2.16696    1.17628   -0.94383
H     -2.43112   -0.34195   -0.95570
H      0.09815   -0.02801    2.57767
H     -1.27174    0.21562    1.89506
Fe     0.12581   -0.01725    0.18005
H      2.39683   -0.45223    1.72827
Br     1.12471    3.28582   -0.72016
Br    -0.01403   -3.44447   -0.77956
