53

O      5.92387   23.09641    7.15065
Fe     6.34974   22.48613    5.56955
P      6.01228   20.33395    6.09752
C      5.77678   19.05048    4.82241
C      4.70963   19.22634    3.74546
C      4.20266   21.69783    3.70421
C      4.43638   23.09905    3.14185
P      5.06844   24.04269    4.56423
C      5.89776   20.69175    1.99773
C      7.28094   20.77467    2.61485
P      7.65443   22.12411    3.77846
C      9.26137   21.64325    4.47716
C      8.08722   23.52973    2.71514
H      4.80544   18.36223    3.06843
H      4.96415   21.66673    4.60744
H      3.72818   19.09245    4.22626
H      5.73390   21.55780    1.33726
H      5.92307   19.83207    1.30766
H      8.03041   20.88629    1.81193
H      7.54761   19.84702    3.13522
H      8.91963   23.23857    2.05470
H      7.23612   23.83481    2.09190
H      8.40628   24.37879    3.33711
H      9.99214   21.46632    3.67113
H      9.63935   22.44757    5.12771
H      9.14431   20.72732    5.07309
H      5.22750   23.08778    2.38182
H      3.53638   23.53376    2.67696
C      3.65996   24.34510    5.64982
H      4.02374   24.90422    6.52456
H      2.88747   24.92896    5.12393
H      3.24777   23.38981    6.00028
C      5.60692   25.68003    4.03706
H      6.01119   26.21301    4.91227
H      6.37702   25.62642    3.25878
H      4.73538   26.23666    3.65484
H      5.51657   18.15179    5.41077
H      6.76868   18.83181    4.40346
C      4.34585   20.39312    6.99654
H      3.65257   20.86334    6.27760
H      4.06535   19.32805    7.08783
C      7.13111   19.58216    7.30094
H      6.74391   18.59399    7.59915
H      8.14136   19.46438    6.88377
H      7.18516   20.23935    8.17903
C      4.67235   20.49119    2.88140
H      3.84704   20.32730    2.16396
N      4.33075   21.03743    8.23682
H      4.57180   22.02873    8.19349
H      4.80765   20.55631    8.99347
N      2.90647   21.54124    4.21902
H      2.26935   22.31966    4.10111
H      2.45367   20.64863    4.05785
