22

O      0.66191   -0.94473   -2.46092
N      2.79878   -0.75498   -0.41972
H      3.21989   -0.62371   -1.34293
H      3.07628   -1.69324   -0.11662
Fe     0.64681   -0.45088   -0.55420
H      3.26331   -0.09277    0.20717
P      0.74281    1.81655   -0.94777
H      0.11679    2.24200   -2.14935
H      0.11656    2.66928   -0.00065
P     -0.57300   -2.40028   -0.31050
H     -1.46873   -2.67786   -1.37247
H      0.29410   -3.52326   -0.36644
H     -1.34880   -2.70864    0.83760
P     -1.98622    0.47071   -0.94972
H     -2.37131    0.04025   -2.24560
H     -2.94231   -0.23275   -0.16537
H     -2.60801    1.75281   -0.92983
P      0.54908   -0.06162    1.70122
H      0.89140   -1.14614    2.55792
H     -0.72679    0.26497    2.23811
Br     1.81982    1.51932    2.46815
Br     2.72869    2.67732   -1.10112
