36

O      7.26527   22.37397    6.31192
Fe     6.54364   21.99934    5.53990
N      5.77031   20.29589    6.31497
C      5.98321   19.29573    5.23901
C      4.99826   19.49645    4.09233
C      4.12767   22.01381    3.49816
C      4.85638   23.34011    3.71454
N      5.32889   23.56401    5.09347
C      6.12271   20.92406    2.21558
C      7.52138   20.92299    2.77068
O      7.67958   21.85781    3.87368
H      5.17640   18.63040    3.43535
H      3.60281   22.23224    2.55267
H      3.99280   19.31539    4.50547
H      5.96128   21.83732    1.62120
H      6.14306   20.10904    1.47168
H      8.23257   21.22974    1.98649
H      7.82378   19.92385    3.12665
H      5.72501   23.44022    3.04802
H      4.15874   24.15423    3.45182
H      7.02474   19.44210    4.89905
C      4.90773   20.70102    3.12895
H      4.17387   20.27258    2.42734
H      6.28828   20.03132    7.15974
H      4.78139   20.31342    6.58546
H      8.61731   22.08184    3.98845
H      5.82737   24.45646    5.17375
H      4.53460   23.63426    5.73863
C      3.03720   21.79944    4.53248
H      2.38435   22.68390    4.60714
H      2.39248   20.94977    4.26426
H      3.43408   21.59658    5.54110
C      5.87911   17.88924    5.80445
H      6.11725   17.14775    5.02756
H      6.58391   17.73954    6.63758
H      4.85644   17.69075    6.16387
