33

O      6.82616   22.63380    6.83593
Fe     6.29457   21.79445    5.13516
N      6.05118   19.72444    5.67707
C      5.74325   18.84185    4.54378
C      4.58070   19.27710    3.66702
C      3.99969   21.81885    3.59635
C      4.49230   23.19447    3.16512
N      5.79552   23.46241    3.78629
C      5.92486   20.75800    2.03298
C      7.33189   20.72543    2.57222
N      7.63360   21.20788    3.75287
H      4.46749   18.46557    2.92978
H      2.92163   21.76457    3.36578
H      3.63518   19.24220    4.23664
H      5.85740   21.68869    1.44389
H      5.86990   19.96284    1.27294
H      4.53017   23.27585    2.06907
H      3.76332   23.94914    3.50035
H      5.52841   17.82218    4.90874
H      6.65685   18.75945    3.93820
C      4.64716   20.59580    2.87624
H      3.91360   20.44057    2.06863
H      6.92506   19.42228    6.11738
H      5.34994   19.62537    6.41612
H      8.62967   21.17967    3.98072
H      6.54467   23.53637    3.09836
H      5.79642   24.34680    4.29772
N      8.24705   20.23441    1.73496
H      9.23835   20.24477    1.95690
H      7.99209   19.88574    0.81736
N      4.18394   21.76971    5.05101
H      3.75019   22.57683    5.50796
H      3.72883   20.94814    5.44808
