54

O      7.25466   22.81804    6.61124
Fe     6.13059   22.19816    5.01224
P      5.94129   20.16945    6.08338
C      5.21053   18.87292    5.00988
C      4.19085   19.54896    4.11482
P      5.00900   21.04129    3.46261
C      3.75878   22.19018    2.82710
C      4.29750   23.58983    3.03841
N      4.95108   23.83953    4.34682
C      6.11451   20.50455    2.09551
C      7.54866   20.46746    2.59277
P      7.87790   22.03820    3.47824
C      9.48738   21.90045    4.28132
C      8.15031   23.23887    2.14667
H      3.82939   18.90400    3.29706
H      3.55711   22.01059    1.75863
H      2.82584   21.99989    3.37168
H      3.31353   19.88848    4.68963
H      5.99842   21.23601    1.27917
H      5.77552   19.53066    1.70623
H      8.26919   20.31776    1.77141
H      7.69854   19.65039    3.31608
H      8.95575   22.86407    1.49386
H      7.24357   23.38974    1.54538
H      8.46523   24.20085    2.57725
H     10.26619   21.66149    3.53958
H      9.71066   22.86547    4.76127
H      9.46086   21.13233    5.06375
H      5.06751   23.78278    2.27772
H      3.50344   24.34030    2.87974
C      3.99476   24.06727    5.44918
H      4.60474   24.36949    6.30864
H      3.35073   24.92824    5.19310
C      5.78355   25.06190    4.14534
H      6.49250   24.80695    3.34825
H      5.11384   25.84006    3.73339
H      4.77378   18.06746    5.62282
H      6.02717   18.42779    4.41888
C      4.93168   20.18657    7.58195
H      3.87961   20.38954    7.34054
H      5.00992   19.20295    8.07254
H      5.30664   20.96668    8.25752
C      7.55802   19.56757    6.60324
H      7.43642   18.63459    7.17701
H      8.18600   19.37067    5.72426
H      8.03240   20.33943    7.22629
C      6.52446   25.60943    5.33445
H      5.85578   26.00287    6.11285
H      7.19252   24.86020    5.77806
H      7.13354   26.45800    4.98632
C      3.17183   22.85992    5.82473
H      2.78426   22.97450    6.84738
H      2.31029   22.69452    5.16549
H      3.80647   21.95685    5.80637
