37

O      0.98892    0.42605    3.46396
N      0.09856   -2.03471    0.59112
C      1.00339   -1.98300   -0.57216
H      0.44832   -1.53905   -1.41330
H      1.29695   -3.00348   -0.87687
C     -1.26228   -2.49263    0.24926
H     -1.73680   -2.75837    1.20528
H     -1.22850   -3.39962   -0.38004
C      2.21366   -1.14121   -0.24159
H      2.80681   -1.61977    0.55215
H      2.87476   -1.05147   -1.11956
C     -2.05377   -1.40886   -0.43178
H     -3.10345   -1.72772   -0.54681
H     -1.66050   -1.14978   -1.43125
C      1.64536    1.23280   -0.75968
H      2.62975    1.55329   -1.14389
H      1.08579    0.82998   -1.61765
C     -2.54581    0.96123   -0.05418
H     -3.02802    1.44203    0.80891
H     -3.30325    0.76216   -0.82735
C     -1.41622    1.80635   -0.58975
H     -0.96782    1.33890   -1.47837
H     -1.78184    2.80458   -0.89502
C      0.92363    2.40316   -0.13039
H      1.51315    2.79935    0.71104
H      0.77370    3.22500   -0.85160
N     -0.36170    1.94066    0.42888
Fe    -0.09523   -0.00727    1.28193
N      1.78240    0.17548    0.24249
O     -1.98821   -0.26880    0.42796
H      2.41104    0.49483    0.98234
N      0.56444   -2.76696    1.69697
H      1.39400   -2.31832    2.08198
H      0.80881   -3.72353    1.41866
N     -0.86780    2.63926    1.53369
H     -1.08772    3.61087    1.28776
H     -0.17094    2.62965    2.27916
