29

O     -2.55815    2.13795    2.45731
Fe    -2.32391    2.20305   -0.47201
N     -3.57741    3.86836   -0.78320
O     -1.93534    1.69862   -2.01175
N     -0.23447    2.49578   -0.39454
O     -3.58995    0.55454   -0.52424
C     -4.82563    3.64619   -0.03527
H     -5.49454    4.51521   -0.15682
H     -5.33071    2.75008   -0.42112
H     -4.59329    3.50762    1.02747
C     -2.83044    5.01110   -0.23628
H     -1.90070    5.15853   -0.80505
H     -3.43363    5.93258   -0.31305
H     -2.59646    4.82201    0.81979
C     -3.86368    4.06208   -2.20969
H     -4.40550    3.18862   -2.60122
H     -4.50467    4.94989   -2.35074
H     -2.92928    4.22242   -2.76554
H     -1.31125    1.00478   -2.27108
H     -2.51814    1.81556   -2.77573
H      0.17140    2.28859    0.52551
H     -3.82757    0.34931    0.39409
C      0.59835    2.98659   -1.23029
H      1.65852    3.15625   -0.97425
H      0.25858    3.25171   -2.24271
C     -3.76812   -0.60636   -1.34844
H     -3.02893   -1.38465   -1.09390
H     -4.78960   -0.99737   -1.21374
H     -3.63940   -0.29292   -2.39141
