23

O      0.32779   -0.54147   -2.19534
O     -0.61722   -2.16820    0.22958
O      0.18933    2.08207   -0.28257
P      2.30972   -0.55754    0.05634
N     -2.30738    0.31558   -0.46469
O     -0.47882    0.27163    1.69224
H     -1.06041   -2.57809    0.98662
H     -0.49458   -2.85750   -0.44026
H      3.16724    0.33118   -0.64201
H      2.77127   -1.79303   -0.46383
H     -2.49217    1.05000   -1.15326
H     -2.82083   -0.50712   -0.79448
H     -0.05123   -0.17854    2.43422
H     -0.23636    1.24145    1.77340
Fe    -0.20902   -0.13113   -0.21662
H      2.94239   -0.56589    1.32942
H     -2.75806    0.60358    0.40862
N      0.24389    2.71179    0.98275
H      1.19077    3.09130    1.11489
H     -0.41483    3.50186    0.97497
N      0.49817    2.81617   -1.41346
H     -0.13512    3.62353   -1.46170
H      1.46051    3.16516   -1.32741
