23

O      0.38225   -0.58310   -2.39608
O     -0.67168   -2.12657    0.43032
O      0.18933    2.08207   -0.28257
P      2.30972   -0.55754    0.05634
N     -2.36184    0.35721   -0.26395
O     -0.47882    0.27163    1.69224
H     -1.11487   -2.53646    1.18736
H     -0.54904   -2.81587   -0.23952
H      3.16724    0.33118   -0.64201
H      2.77127   -1.79303   -0.46383
H     -2.54663    1.09163   -0.95252
H     -2.87529   -0.46549   -0.59374
H     -0.05123   -0.17854    2.43422
H     -0.23636    1.24145    1.77340
Fe    -0.26348   -0.08950   -0.01588
H      2.94239   -0.56589    1.32942
H     -2.81252    0.64521    0.60936
N      0.24389    2.71179    0.98275
H      1.19077    3.09130    1.11489
H     -0.41483    3.50186    0.97497
N      0.49817    2.81617   -1.41346
H     -0.13512    3.62353   -1.46170
H      1.46051    3.16516   -1.32741
