54

O      7.07193   22.71727    6.35130
Fe     6.31332   22.29893    5.27218
P      6.12402   20.27022    6.34332
C      5.39326   18.97369    5.26982
C      4.37358   19.64973    4.37476
P      5.19173   21.14206    3.72255
C      3.94151   22.29095    3.08704
C      4.48023   23.69060    3.29835
N      5.13381   23.94030    4.60676
C      6.29724   20.60532    2.35545
C      7.73139   20.56823    2.85271
P      8.06063   22.13897    3.73818
C      9.67011   22.00122    4.54126
C      8.33304   23.33964    2.40661
H      4.01212   19.00477    3.55700
H      3.73984   22.11136    2.01857
H      3.00857   22.10066    3.63162
H      3.49626   19.98925    4.94957
H      6.18115   21.33678    1.53911
H      5.95825   19.63143    1.96617
H      8.45192   20.41853    2.03135
H      7.88127   19.75116    3.57602
H      9.13848   22.96484    1.75380
H      7.42630   23.49051    1.80532
H      8.64796   24.30162    2.83719
H     10.44892   21.76226    3.79952
H      9.89339   22.96624    5.02121
H      9.64359   21.23310    5.32369
H      5.25024   23.88355    2.53766
H      3.68617   24.44107    3.13968
C      4.17749   24.16804    5.70912
H      4.78747   24.47026    6.56858
H      3.53346   25.02901    5.45304
C      5.96628   25.16267    4.40528
H      6.67523   24.90772    3.60819
H      5.29657   25.94083    3.99333
H      4.95651   18.16823    5.88276
H      6.20990   18.52856    4.67882
C      5.11441   20.28734    7.84189
H      4.06234   20.49031    7.60048
H      5.19265   19.30372    8.33248
H      5.48937   21.06745    8.51746
C      7.74075   19.66834    6.86318
H      7.61915   18.73536    7.43695
H      8.36873   19.47144    5.98420
H      8.21513   20.44020    7.48623
C      6.70719   25.71020    5.59439
H      6.03851   26.10364    6.37279
H      7.37525   24.96097    6.03800
H      7.31627   26.55877    5.24626
C      3.35456   22.96069    6.08467
H      2.96699   23.07527    7.10732
H      2.49302   22.79529    5.42543
H      3.98920   22.05762    6.06631
