53

O      5.85986   23.18813    7.38827
Fe     6.41375   22.39441    5.33193
P      6.07629   20.24223    5.85990
C      5.84079   18.95876    4.58479
C      4.77364   19.13462    3.50784
C      4.26667   21.60611    3.46659
C      4.50039   23.00733    2.90423
P      5.13245   23.95097    4.32661
C      5.96177   20.60003    1.76011
C      7.34495   20.68295    2.37723
P      7.71844   22.03239    3.54084
C      9.32538   21.55153    4.23954
C      8.15123   23.43801    2.47752
H      4.86945   18.27051    2.83081
H      5.02816   21.57501    4.36982
H      3.79219   19.00073    3.98864
H      5.79791   21.46608    1.09964
H      5.98708   19.74035    1.07004
H      8.09442   20.79457    1.57431
H      7.61162   19.75530    2.89760
H      8.98364   23.14685    1.81708
H      7.30013   23.74309    1.85428
H      8.47029   24.28707    3.09949
H     10.05615   21.37460    3.43351
H      9.70336   22.35585    4.89009
H      9.20832   20.63560    4.83547
H      5.29151   22.99606    2.14420
H      3.60039   23.44204    2.43934
C      3.72397   24.25338    5.41220
H      4.08775   24.81250    6.28694
H      2.95148   24.83724    4.88631
H      3.31178   23.29809    5.76266
C      5.67093   25.58831    3.79944
H      6.07520   26.12129    4.67465
H      6.44103   25.53470    3.02116
H      4.79939   26.14494    3.41722
H      5.58058   18.06007    5.17315
H      6.83269   18.74009    4.16584
C      4.40986   20.30140    6.75892
H      3.71658   20.77162    6.03998
H      4.12936   19.23633    6.85021
C      7.19512   19.49044    7.06332
H      6.80792   18.50227    7.36153
H      8.20537   19.37266    6.64615
H      7.24917   20.14763    7.94141
C      4.73636   20.39947    2.64378
H      3.91105   20.23558    1.92634
N      4.39476   20.94571    7.99920
H      4.63581   21.93701    7.95587
H      4.87166   20.46459    8.75585
N      2.97048   21.44952    3.98140
H      2.33336   22.22794    3.86349
H      2.51768   20.55691    3.82023
