23

O      0.38802    0.01765   -2.39411
O     -0.34171   -2.14590   -0.36927
O      0.07797    2.13762   -0.25050
P      2.20883   -0.05500    0.48060
N     -2.34624    0.33629   -0.38113
O     -0.50235   -0.00774    1.78455
H     -0.29125   -2.72988    0.40104
H     -0.04963   -2.67424   -1.12796
H      0.21245    2.33993    0.69112
H      3.09340    0.02539   -0.62619
H      2.66880   -1.25084    1.08747
H     -2.76710    0.99063    0.28462
H     -2.52465    0.74487   -1.30390
H     -1.32007   -0.07150    2.31196
Fe    -0.21161   -0.02057   -0.22319
H      2.74539    0.93248    1.33589
H     -2.91204   -0.51745   -0.34389
N      0.63723   -0.17022    2.58810
H      0.63611    0.57358    3.29585
H      0.55295   -1.05986    3.09300
N      1.30087    2.56617   -0.86762
H      1.15845    3.56836   -1.05404
H      1.24400    2.10899   -1.78554
