19

O      0.63235   -0.17128   -1.76540
O      0.00039   -2.16738   -0.27627
O      0.56330    2.02057   -0.37364
P      2.77071   -0.41459   -0.09610
P     -2.22553    0.28254   -0.92454
O     -0.19929    0.04417    1.85116
H     -0.57399   -2.57855    0.38710
H     -0.10232   -2.69022   -1.08691
H      0.70913    2.46979    0.47289
H      1.20134    2.40835   -0.99504
H      3.32118   -1.48163   -0.85553
H     -2.38730    1.24743   -1.95659
H      0.37968   -0.22737    2.57891
H     -1.02912    0.31306    2.27257
Fe     0.29487   -0.08067   -0.53107
H      3.36820   -0.68478    1.16922
H     -3.31886    0.66526   -0.09332
Br    -2.95938   -1.53617   -1.85346
Br     3.88202    1.31275   -0.78024
