33

O      6.69803   22.43150    6.42600
Fe     6.42270   21.99675    5.54509
N      6.17931   19.92674    6.08700
C      5.87138   19.04415    4.95371
C      4.70883   19.47940    4.07695
C      4.12782   22.02115    4.00628
C      4.62043   23.39677    3.57505
N      5.92365   23.66471    4.19622
C      6.05299   20.96030    2.44291
C      7.46002   20.92773    2.98215
N      7.76173   21.41018    4.16280
H      4.59562   18.66787    3.33971
H      3.04976   21.96687    3.77571
H      3.76331   19.44450    4.64657
H      5.98553   21.89099    1.85382
H      5.99803   20.16514    1.68287
H      4.65830   23.47815    2.47900
H      3.89145   24.15144    3.91028
H      5.65654   18.02448    5.31867
H      6.78498   18.96175    4.34813
C      4.77529   20.79810    3.28617
H      4.04173   20.64287    2.47856
H      7.05319   19.62458    6.52731
H      5.47807   19.82767    6.82605
H      8.75780   21.38197    4.39065
H      6.67280   23.73867    3.50829
H      5.92455   24.54910    4.70765
N      8.37518   20.43671    2.14489
H      9.36648   20.44707    2.36683
H      8.12022   20.08804    1.22729
N      4.31207   21.97201    5.46094
H      3.87832   22.77913    5.91789
H      3.85696   21.15044    5.85801
