33

O      6.70894   22.44871    6.46089
Fe     6.41179   21.97954    5.51020
N      6.16840   19.90953    6.05211
C      5.86047   19.02694    4.91882
C      4.69792   19.46219    4.04206
C      4.11691   22.00394    3.97139
C      4.60952   23.37956    3.54016
N      5.91274   23.64750    4.16133
C      6.04208   20.94309    2.40802
C      7.44911   20.91052    2.94726
N      7.75082   21.39297    4.12791
H      4.58471   18.65066    3.30482
H      3.03885   21.94966    3.74082
H      3.75240   19.42729    4.61168
H      5.97462   21.87378    1.81893
H      5.98712   20.14793    1.64798
H      4.64739   23.46094    2.44411
H      3.88054   24.13423    3.87539
H      5.64563   18.00727    5.28378
H      6.77407   18.94454    4.31324
C      4.76438   20.78089    3.25128
H      4.03082   20.62566    2.44367
H      7.04228   19.60737    6.49242
H      5.46716   19.81046    6.79116
H      8.74689   21.36476    4.35576
H      6.66189   23.72146    3.47340
H      5.91364   24.53189    4.67276
N      8.36427   20.41950    2.11000
H      9.35557   20.42986    2.33194
H      8.10931   20.07083    1.19240
N      4.30116   21.95480    5.42605
H      3.86741   22.76192    5.88300
H      3.84605   21.13323    5.82312
