17

O      0.00000    0.00000    1.41111
Fe     0.00000    0.00000    0.18889
O     -0.02532   -2.04942    0.14712
O      0.01885    2.04941    0.14340
O     -2.09136   -0.00340   -0.00141
O      2.09172    0.00000    0.00264
O      0.00000    0.00000   -1.86111
H      0.26040   -2.63210   -0.57850
H      0.04961   -2.57039    0.96726
H     -0.25655    2.63228   -0.58597
H     -0.05040    2.57471    0.96121
H     -2.58023    0.46315    0.70286
H     -2.52460   -0.87680   -0.03918
H      2.52747    0.87055   -0.06191
H      2.57839   -0.44571    0.72181
H     -0.77522    0.08407   -2.44173
H      0.77001   -0.10212   -2.44569
