24

O     -0.25574    0.73779   -3.10387
N      2.27148    0.25408   -0.66167
H      2.54191    0.25955   -1.64968
H      2.66639   -0.59468   -0.24574
Fe     0.14680    0.25531   -0.56429
H      2.74676    1.03819   -0.20846
P      0.27629    3.03788   -0.55478
H      1.11728    3.57301   -1.56651
H     -0.87528    3.83357   -0.80306
H      0.79082    3.72520    0.58078
P     -0.20068   -2.18094   -1.32815
H     -0.75509   -2.53322   -2.58381
H      0.94590   -3.01171   -1.28481
H     -1.05685   -2.89094   -0.44426
P     -2.12055    0.67429   -0.16386
H     -2.73179    1.51112   -1.14336
H     -2.90258   -0.50388   -0.26626
P      0.16846   -0.25861    1.77678
H      0.19957    0.77630    2.74880
H     -0.91577   -1.03095    2.26553
N     -2.43006    1.16125    1.41860
H     -2.09676    2.09397    1.66094
H     -3.38263    1.03013    1.76805
Br     1.88486   -1.48225    2.31072
