19

O      0.85290   -0.23049   -2.57208
O     -0.22016   -2.10817    0.53041
O      0.34275    2.07978    0.43304
P      2.55016   -0.35538    0.71058
P     -2.22553    0.28254   -0.92454
O     -0.19929    0.04417    1.85116
H     -0.79454   -2.51934    1.19378
H     -0.32287   -2.63101   -0.28023
H      0.48858    2.52900    1.27957
H      0.98079    2.46756   -0.18836
H      3.10063   -1.42242   -0.04885
H     -2.38730    1.24743   -1.95659
H      0.37968   -0.22737    2.57891
H     -1.02912    0.31306    2.27257
Fe     0.07432   -0.02146    0.27561
H      3.14765   -0.62557    1.97590
H     -3.31886    0.66526   -0.09332
Br    -2.95938   -1.53617   -1.85346
Br     3.66147    1.37196    0.02644
