54

O      7.22698   22.80277    6.57185
Fe     6.15827   22.21343    5.05163
P      5.96897   20.18472    6.12277
C      5.23821   18.88819    5.04927
C      4.21853   19.56423    4.15421
P      5.03668   21.05656    3.50200
C      3.78646   22.20545    2.86649
C      4.32518   23.60510    3.07780
N      4.97876   23.85480    4.38621
C      6.14219   20.51982    2.13490
C      7.57634   20.48273    2.63216
P      7.90558   22.05347    3.51763
C      9.51506   21.91572    4.32071
C      8.17799   23.25414    2.18606
H      3.85707   18.91927    3.33645
H      3.58479   22.02586    1.79802
H      2.85352   22.01516    3.41107
H      3.34121   19.90375    4.72902
H      6.02610   21.25128    1.31856
H      5.80320   19.54593    1.74562
H      8.29687   20.33303    1.81080
H      7.72622   19.66566    3.35547
H      8.98343   22.87934    1.53325
H      7.27125   23.40501    1.58477
H      8.49291   24.21612    2.61664
H     10.29387   21.67676    3.57897
H      9.73834   22.88074    4.80066
H      9.48854   21.14760    5.10314
H      5.09519   23.79805    2.31711
H      3.53112   24.35557    2.91913
C      4.02244   24.08254    5.48857
H      4.63242   24.38476    6.34803
H      3.37841   24.94351    5.23249
C      5.81123   25.07717    4.18473
H      6.52018   24.82222    3.38764
H      5.14152   25.85533    3.77278
H      4.80146   18.08273    5.66221
H      6.05485   18.44306    4.45827
C      4.95936   20.20184    7.62134
H      3.90729   20.40481    7.37993
H      5.03760   19.21822    8.11193
H      5.33432   20.98195    8.29691
C      7.58570   19.58284    6.64263
H      7.46410   18.64986    7.21640
H      8.21368   19.38594    5.76365
H      8.06008   20.35470    7.26568
C      6.55214   25.62470    5.37384
H      5.88346   26.01814    6.15224
H      7.22020   24.87547    5.81745
H      7.16122   26.47327    5.02571
C      3.19951   22.87519    5.86412
H      2.81194   22.98977    6.88677
H      2.33797   22.70979    5.20488
H      3.83415   21.97212    5.84576
