37

O      0.89156    0.38714    3.26802
N      0.19592   -1.99580    0.78706
C      1.10075   -1.94409   -0.37622
H      0.54568   -1.50014   -1.21736
H      1.39431   -2.96457   -0.68093
C     -1.16492   -2.45372    0.44520
H     -1.63944   -2.71946    1.40122
H     -1.13114   -3.36071   -0.18410
C      2.31102   -1.10230   -0.04565
H      2.90417   -1.58086    0.74809
H      2.97212   -1.01256   -0.92362
C     -1.95641   -1.36995   -0.23584
H     -3.00609   -1.68881   -0.35087
H     -1.56314   -1.11087   -1.23531
C      1.74272    1.27171   -0.56374
H      2.72711    1.59220   -0.94795
H      1.18315    0.86889   -1.42171
C     -2.44845    1.00014    0.14176
H     -2.93066    1.48094    1.00485
H     -3.20589    0.80107   -0.63141
C     -1.31886    1.84526   -0.39381
H     -0.87046    1.37781   -1.28243
H     -1.68448    2.84349   -0.69908
C      1.02099    2.44207    0.06555
H      1.61051    2.83826    0.90698
H      0.87106    3.26391   -0.65566
N     -0.26434    1.97957    0.62482
Fe     0.00213    0.03164    1.47787
N      1.87976    0.21439    0.43843
O     -1.89085   -0.22989    0.62390
H      2.50840    0.53374    1.17828
N      0.66180   -2.72805    1.89291
H      1.49136   -2.27941    2.27792
H      0.90617   -3.68462    1.61460
N     -0.77044    2.67817    1.72963
H     -0.99036    3.64978    1.48370
H     -0.07358    2.66856    2.47510
