22

O      0.38170   -0.05073   -1.84092
O     -0.13176   -2.17943   -0.07121
O      0.10773    2.16127   -0.26153
P      2.43688   -0.32072   -0.12798
O     -1.97491   -0.07811   -0.91084
O     -0.64106    0.01076    1.68341
H     -0.22828   -2.85443   -0.76923
H      0.53141    2.57598    0.50515
H      0.36283    2.70154   -1.02613
H      3.34699    0.72535   -0.42766
H      3.07926   -1.41524   -0.75783
H     -2.55072    0.30730   -1.58597
H     -2.25595    0.25256    0.04421
H     -0.79213   -1.01458    1.66698
Fe     0.06532    0.01832   -0.87347
H      2.74533   -0.56388    1.23592
N     -0.93253   -2.47185    1.03290
H     -1.88513   -2.68965    0.71559
H     -0.54582   -3.29455    1.51254
N     -1.94509    0.54948    1.82075
H     -2.37163    0.13016    2.65796
H     -1.79979    1.53586    2.06131
