23

O      0.26971    0.01011   -1.96576
O     -0.34171   -2.14590   -0.36927
O      0.07797    2.13762   -0.25050
P      2.32714   -0.04746    0.05225
N     -2.22793    0.34383   -0.80948
O     -0.50235   -0.00774    1.78455
H     -0.29125   -2.72988    0.40104
H     -0.04963   -2.67424   -1.12796
H      0.21245    2.33993    0.69112
H      3.21171    0.03293   -1.05454
H      2.78711   -1.24330    0.65912
H     -2.64879    0.99817   -0.14373
H     -2.40634    0.75241   -1.73225
H     -1.32007   -0.07150    2.31196
Fe    -0.09330   -0.01303   -0.65154
H      2.86370    0.94002    0.90754
H     -2.79373   -0.50991   -0.77224
N      0.63723   -0.17022    2.58810
H      0.63611    0.57358    3.29585
H      0.55295   -1.05986    3.09300
N      1.30087    2.56617   -0.86762
H      1.15845    3.56836   -1.05404
H      1.24400    2.10899   -1.78554
