22

O      0.66539   -1.05870   -2.90093
N      2.79878   -0.75498   -0.41972
H      3.21989   -0.62371   -1.34293
H      3.07628   -1.69324   -0.11662
Fe     0.64333   -0.33691   -0.11419
H      3.26331   -0.09277    0.20717
P      0.73933    1.93052   -0.50776
H      0.11331    2.35597   -1.70934
H      0.11308    2.78325    0.43936
P     -0.57648   -2.28631    0.12951
H     -1.47221   -2.56389   -0.93246
H      0.29062   -3.40929    0.07357
H     -1.35228   -2.59467    1.27761
P     -1.98622    0.47071   -0.94972
H     -2.37131    0.04025   -2.24560
H     -2.94231   -0.23275   -0.16537
H     -2.60801    1.75281   -0.92983
P      0.54560    0.05235    2.14123
H      0.88792   -1.03217    2.99793
H     -0.73027    0.37894    2.67812
Br     1.81634    1.63329    2.90816
Br     2.72521    2.79129   -0.66111
