17

O      0.00000    0.00000    2.15859
Fe     0.00000    0.00000   -0.55859
O     -0.02532   -2.04942   -0.60035
O      0.01885    2.04941   -0.60407
O     -2.09136   -0.00340   -0.74888
O      2.09172    0.00000   -0.74483
O      0.00000    0.00000   -2.60859
H      0.26040   -2.63210   -1.32597
H      0.04961   -2.57039    0.21979
H     -0.25655    2.63228   -1.33345
H     -0.05040    2.57471    0.21374
H     -2.58023    0.46315   -0.04462
H     -2.52460   -0.87680   -0.78666
H      2.52747    0.87055   -0.80938
H      2.57839   -0.44571   -0.02566
H     -0.77522    0.08407   -3.18921
H      0.77001   -0.10212   -3.19317
