37

O      1.05972    0.45435    3.60646
N      0.02776   -2.06301    0.44862
C      0.93259   -2.01130   -0.71466
H      0.37752   -1.56735   -1.55580
H      1.22615   -3.03178   -1.01937
C     -1.33308   -2.52093    0.10676
H     -1.80760   -2.78667    1.06278
H     -1.29930   -3.42792   -0.52254
C      2.14286   -1.16951   -0.38409
H      2.73601   -1.64807    0.40965
H      2.80396   -1.07977   -1.26206
C     -2.12457   -1.43716   -0.57428
H     -3.17425   -1.75602   -0.68931
H     -1.73130   -1.17808   -1.57375
C      1.57456    1.20450   -0.90218
H      2.55895    1.52499   -1.28639
H      1.01499    0.80168   -1.76015
C     -2.61661    0.93293   -0.19668
H     -3.09882    1.41373    0.66641
H     -3.37405    0.73386   -0.96985
C     -1.48702    1.77805   -0.73225
H     -1.03862    1.31060   -1.62087
H     -1.85264    2.77628   -1.03752
C      0.85283    2.37486   -0.27289
H      1.44235    2.77105    0.56854
H      0.70290    3.19670   -0.99410
N     -0.43250    1.91236    0.28638
Fe    -0.16603   -0.03557    1.13943
N      1.71160    0.14718    0.09999
O     -2.05901   -0.29710    0.28546
H      2.34024    0.46653    0.83984
N      0.49364   -2.79526    1.55447
H      1.32320   -2.34662    1.93948
H      0.73801   -3.75183    1.27616
N     -0.93860    2.61096    1.39119
H     -1.15852    3.58257    1.14526
H     -0.24174    2.60135    2.13666
