22

O      0.62736   -0.29912   -2.74984
O     -0.66709   -2.13712   -0.38183
O     -0.41695    1.91455    0.46681
P      1.98901   -0.52058    0.53776
O     -2.35339    0.11938   -0.75358
O     -0.76755   -0.13725    1.74867
H     -0.72924   -2.43266    0.54358
H     -0.89483    1.97767    1.38009
H     -0.01603    2.74825    0.18710
H      2.91192    0.36082   -0.07789
H      2.42561   -1.78504    0.07312
H     -2.71514    0.87660   -1.24004
H     -2.86977   -0.64808   -1.04523
H      0.06134   -0.08743    2.25404
Fe    -0.37453   -0.02021   -0.10884
H      2.48387   -0.53813    1.87011
N      0.19404   -3.08776   -1.01502
H     -0.43151   -3.85283   -1.30283
H      0.44633   -2.60182   -1.88377
N     -1.42320    1.10119    2.01296
H     -2.39675    0.90660    1.75224
H     -1.43649    1.24044    3.03273
