29

O     11.81320    7.16582   13.26586
Fe    13.47896    7.54194   11.55944
N     14.94737    7.80553    9.83448
N     12.34048    8.32381   10.03381
O     15.03058    8.63425   12.40808
N     14.04641    5.61174   11.12926
C     14.43072    8.92381    9.01554
H     14.77917    8.82188    7.96984
C     12.93353    8.87538    9.04305
C     16.24197    8.03272   10.46293
H     16.70738    7.05603   10.69100
H     16.96531    8.55359    9.81298
C     16.11504    8.69777   11.81159
C     14.91152    6.53928    9.10000
H     14.12168    6.57243    8.32621
H     15.84751    6.34344    8.54362
C     14.56861    5.39064    9.98219
H     12.37803    9.38557    8.23803
H     14.74288    4.36873    9.60274
H     13.78772    4.78651   11.67987
H     11.31673    8.37742   10.04265
C     14.82502   10.31271    9.50530
H     14.49299   10.48765   10.53826
H     15.90844   10.47325    9.42039
H     14.34720   11.07246    8.86779
C     17.28824    9.36299   12.39790
H     17.16899    9.50477   13.48061
H     18.22001    8.82538   12.15708
H     17.37953   10.35860   11.92114
