17

O      0.00000    0.00000    1.38081
Fe     0.00000    0.00000    0.21919
O     -0.02532   -2.04942    0.17742
O      0.01885    2.04941    0.17371
O     -2.09136   -0.00340    0.02890
O      2.09172    0.00000    0.03295
O      0.00000    0.00000   -1.83081
H      0.26040   -2.63210   -0.54819
H      0.04961   -2.57039    0.99757
H     -0.25655    2.63228   -0.55567
H     -0.05040    2.57471    0.99151
H     -2.58023    0.46315    0.73316
H     -2.52460   -0.87680   -0.00888
H      2.52747    0.87055   -0.03161
H      2.57839   -0.44571    0.75211
H     -0.77522    0.08407   -2.41143
H      0.77001   -0.10212   -2.41539
