18

O      0.65067   -0.08310   -1.93667
O     -0.23464   -2.08842   -0.34285
O      0.49744    2.06301   -0.29736
N      2.33424   -0.40429    0.00176
O     -1.87800    0.34074   -0.54394
O     -0.33312    0.05252    1.71435
H     -0.45810   -2.50808    0.50802
H      0.41819    2.51871    0.56053
H      2.92942    0.33158   -0.39254
H      2.65220   -1.27383   -0.43871
H     -2.16696    1.17628   -0.94383
H     -2.43112   -0.34195   -0.95570
H      0.09815   -0.02801    2.57767
H     -1.27174    0.21562    1.89506
Fe     0.30806   -0.04011   -0.55492
H      2.57908   -0.47509    0.99330
Br     1.30696    3.26296   -1.45513
Br     0.16822   -3.46733   -1.51453
