19

O      0.80773   -0.21836   -2.40686
O     -0.17499   -2.12030    0.36519
O      0.38792    2.06765    0.26782
P      2.59533   -0.36751    0.54536
P     -2.22553    0.28254   -0.92454
O     -0.19929    0.04417    1.85116
H     -0.74937   -2.53147    1.02856
H     -0.27770   -2.64314   -0.44545
H      0.53375    2.51687    1.11435
H      1.02596    2.45543   -0.35358
H      3.14580   -1.43455   -0.21407
H     -2.38730    1.24743   -1.95659
H      0.37968   -0.22737    2.57891
H     -1.02912    0.31306    2.27257
Fe     0.11949   -0.03359    0.11039
H      3.19282   -0.63770    1.81068
H     -3.31886    0.66526   -0.09332
Br    -2.95938   -1.53617   -1.85346
Br     3.70664    1.35983   -0.13878
