53

O      6.01003   22.97294    6.83077
Fe     6.26358   22.60960    5.88943
P      5.92612   20.45742    6.41740
C      5.69062   19.17395    5.14229
C      4.62347   19.34981    4.06534
C      4.11650   21.82130    4.02409
C      4.35022   23.22252    3.46173
P      4.98228   24.16616    4.88411
C      5.81160   20.81522    2.31761
C      7.19478   20.89814    2.93473
P      7.56827   22.24758    4.09834
C      9.17521   21.76672    4.79704
C      8.00106   23.65320    3.03502
H      4.71928   18.48570    3.38831
H      4.87799   21.79020    4.92732
H      3.64202   19.21592    4.54614
H      5.64774   21.68127    1.65714
H      5.83691   19.95554    1.62754
H      7.94425   21.00976    2.13181
H      7.46145   19.97049    3.45510
H      8.83347   23.36204    2.37458
H      7.14996   23.95828    2.41178
H      8.32012   24.50226    3.65699
H      9.90598   21.58979    3.99101
H      9.55319   22.57104    5.44759
H      9.05815   20.85079    5.39297
H      5.14134   23.21125    2.70170
H      3.45022   23.65723    2.99684
C      3.57380   24.46857    5.96970
H      3.93758   25.02769    6.84444
H      2.80131   25.05243    5.44381
H      3.16161   23.51328    6.32016
C      5.52076   25.80350    4.35694
H      5.92503   26.33648    5.23215
H      6.29086   25.74989    3.57866
H      4.64922   26.36013    3.97472
H      5.43041   18.27526    5.73065
H      6.68252   18.95528    4.72334
C      4.25969   20.51659    7.31642
H      3.56641   20.98681    6.59748
H      3.97919   19.45152    7.40771
C      7.04495   19.70563    7.62082
H      6.65775   18.71746    7.91903
H      8.05520   19.58785    7.20365
H      7.09900   20.36282    8.49891
C      4.58619   20.61466    3.20128
H      3.76088   20.45077    2.48384
N      4.24459   21.16090    8.55670
H      4.48564   22.15220    8.51337
H      4.72149   20.67978    9.31335
N      2.82031   21.66471    4.53890
H      2.18319   22.44313    4.42099
H      2.36751   20.77210    4.37773
