18

O      0.80862   -0.10291   -2.57365
O     -0.39259   -2.06861    0.29413
O      0.33949    2.08282    0.33962
N      2.17629   -0.38448    0.63874
O     -1.87800    0.34074   -0.54394
O     -0.33312    0.05252    1.71435
H     -0.61605   -2.48827    1.14500
H      0.26024    2.53852    1.19751
H      2.77147    0.35139    0.24444
H      2.49425   -1.25402    0.19827
H     -2.16696    1.17628   -0.94383
H     -2.43112   -0.34195   -0.95570
H      0.09815   -0.02801    2.57767
H     -1.27174    0.21562    1.89506
Fe     0.15011   -0.02030    0.08206
H      2.42113   -0.45528    1.63028
Br     1.14901    3.28277   -0.81815
Br     0.01027   -3.44752   -0.87755
