18

O      0.79647   -0.10139   -2.52465
O     -0.38044   -2.07013    0.24513
O      0.35164    2.08130    0.29062
N      2.18844   -0.38600    0.58974
O     -1.87800    0.34074   -0.54394
O     -0.33312    0.05252    1.71435
H     -0.60390   -2.48979    1.09600
H      0.27239    2.53700    1.14851
H      2.78362    0.34987    0.19544
H      2.50640   -1.25554    0.14927
H     -2.16696    1.17628   -0.94383
H     -2.43112   -0.34195   -0.95570
H      0.09815   -0.02801    2.57767
H     -1.27174    0.21562    1.89506
Fe     0.16226   -0.02182    0.03306
H      2.43328   -0.45680    1.58128
Br     1.16116    3.28125   -0.86715
Br     0.02242   -3.44904   -0.92655
