22

O      0.65997   -0.88142   -2.21647
N      2.79878   -0.75498   -0.41972
H      3.21989   -0.62371   -1.34293
H      3.07628   -1.69324   -0.11662
Fe     0.64875   -0.51419   -0.79865
H      3.26331   -0.09277    0.20717
P      0.74475    1.75324   -1.19222
H      0.11873    2.17869   -2.39380
H      0.11850    2.60597   -0.24510
P     -0.57106   -2.46359   -0.55495
H     -1.46679   -2.74117   -1.61692
H      0.29604   -3.58657   -0.61089
H     -1.34686   -2.77195    0.59315
P     -1.98622    0.47071   -0.94972
H     -2.37131    0.04025   -2.24560
H     -2.94231   -0.23275   -0.16537
H     -2.60801    1.75281   -0.92983
P      0.55102   -0.12493    1.45677
H      0.89334   -1.20945    2.31347
H     -0.72485    0.20166    1.99366
Br     1.82176    1.45601    2.22370
Br     2.73063    2.61401   -1.34557
