37

O      0.90484    0.39245    3.29474
N      0.18264   -2.00111    0.76034
C      1.08747   -1.94940   -0.40294
H      0.53240   -1.50545   -1.24408
H      1.38103   -2.96988   -0.70765
C     -1.17820   -2.45903    0.41848
H     -1.65272   -2.72477    1.37450
H     -1.14442   -3.36602   -0.21082
C      2.29774   -1.10761   -0.07237
H      2.89089   -1.58617    0.72137
H      2.95884   -1.01787   -0.95034
C     -1.96969   -1.37526   -0.26256
H     -3.01937   -1.69412   -0.37759
H     -1.57642   -1.11618   -1.26203
C      1.72944    1.26640   -0.59046
H      2.71383    1.58689   -0.97467
H      1.16987    0.86358   -1.44843
C     -2.46173    0.99483    0.11504
H     -2.94394    1.47563    0.97813
H     -3.21917    0.79576   -0.65813
C     -1.33214    1.83995   -0.42053
H     -0.88374    1.37250   -1.30915
H     -1.69776    2.83818   -0.72580
C      1.00771    2.43676    0.03883
H      1.59723    2.83295    0.88026
H      0.85778    3.25860   -0.68238
N     -0.27762    1.97426    0.59810
Fe    -0.01115    0.02633    1.45115
N      1.86648    0.20908    0.41171
O     -1.90413   -0.23520    0.59718
H      2.49512    0.52843    1.15156
N      0.64852   -2.73336    1.86619
H      1.47808   -2.28472    2.25120
H      0.89289   -3.68993    1.58788
N     -0.78372    2.67286    1.70291
H     -1.00364    3.64447    1.45698
H     -0.08686    2.66325    2.44838
