17

O      0.00000    0.00000    1.51212
Fe     0.00000    0.00000    0.08788
O     -0.02532   -2.04942    0.04611
O      0.01885    2.04941    0.04239
O     -2.09136   -0.00340   -0.10242
O      2.09172    0.00000   -0.09837
O      0.00000    0.00000   -1.96212
H      0.26040   -2.63210   -0.67951
H      0.04961   -2.57039    0.86625
H     -0.25655    2.63228   -0.68698
H     -0.05040    2.57471    0.86020
H     -2.58023    0.46315    0.60185
H     -2.52460   -0.87680   -0.14019
H      2.52747    0.87055   -0.16292
H      2.57839   -0.44571    0.62080
H     -0.77522    0.08407   -2.54274
H      0.77001   -0.10212   -2.54670
