22

O      0.37065   -0.22766   -2.07314
O     -0.66709   -2.13712   -0.38183
O     -0.16024    1.84309   -0.20989
P      2.24572   -0.59204   -0.13894
O     -2.35339    0.11938   -0.75358
O     -0.76755   -0.13725    1.74867
H     -0.72924   -2.43266    0.54358
H     -0.63812    1.90621    0.70339
H      0.24068    2.67679   -0.48960
H      3.16863    0.28936   -0.75459
H      2.68232   -1.85650   -0.60358
H     -2.71514    0.87660   -1.24004
H     -2.86977   -0.64808   -1.04523
H      0.06134   -0.08743    2.25404
Fe    -0.11782   -0.09167   -0.78554
H      2.74058   -0.60959    1.19341
N      0.19404   -3.08776   -1.01502
H     -0.43151   -3.85283   -1.30283
H      0.44633   -2.60182   -1.88377
N     -1.42320    1.10119    2.01296
H     -2.39675    0.90660    1.75224
H     -1.43649    1.24044    3.03273
