23

O      0.41222    0.01919   -2.48172
O     -0.34171   -2.14590   -0.36927
O      0.07797    2.13762   -0.25050
P      2.18463   -0.05654    0.56821
N     -2.37044    0.33475   -0.29352
O     -0.50235   -0.00774    1.78455
H     -0.29125   -2.72988    0.40104
H     -0.04963   -2.67424   -1.12796
H      0.21245    2.33993    0.69112
H      3.06920    0.02385   -0.53858
H      2.64460   -1.25238    1.17508
H     -2.79130    0.98909    0.37223
H     -2.54885    0.74333   -1.21629
H     -1.32007   -0.07150    2.31196
Fe    -0.23581   -0.02211   -0.13558
H      2.72119    0.93094    1.42350
H     -2.93624   -0.51899   -0.25628
N      0.63723   -0.17022    2.58810
H      0.63611    0.57358    3.29585
H      0.55295   -1.05986    3.09300
N      1.30087    2.56617   -0.86762
H      1.15845    3.56836   -1.05404
H      1.24400    2.10899   -1.78554
