53

O      5.79832   23.27632    7.61675
Fe     6.47529   22.30622    5.10345
P      6.13783   20.15404    5.63142
C      5.90233   18.87057    4.35631
C      4.83518   19.04643    3.27936
C      4.32821   21.51792    3.23811
C      4.56193   22.91914    2.67575
P      5.19399   23.86278    4.09813
C      6.02331   20.51184    1.53163
C      7.40649   20.59476    2.14875
P      7.77998   21.94420    3.31236
C      9.38692   21.46334    4.01106
C      8.21277   23.34982    2.24904
H      4.93099   18.18232    2.60233
H      5.08970   21.48682    4.14134
H      3.85373   18.91254    3.76016
H      5.85945   21.37789    0.87116
H      6.04862   19.65216    0.84156
H      8.15596   20.70638    1.34583
H      7.67316   19.66711    2.66912
H      9.04518   23.05866    1.58860
H      7.36167   23.65490    1.62580
H      8.53183   24.19888    2.87101
H     10.11769   21.28641    3.20503
H      9.76490   22.26766    4.66161
H      9.26986   20.54741    4.60699
H      5.35305   22.90787    1.91572
H      3.66193   23.35385    2.21086
C      3.78551   24.16519    5.18372
H      4.14929   24.72431    6.05846
H      3.01302   24.74905    4.65783
H      3.37332   23.20990    5.53418
C      5.73247   25.50012    3.57096
H      6.13674   26.03310    4.44617
H      6.50257   25.44651    2.79268
H      4.86093   26.05675    3.18874
H      5.64212   17.97188    4.94467
H      6.89423   18.65190    3.93736
C      4.47140   20.21321    6.53044
H      3.77812   20.68343    5.81150
H      4.19090   19.14814    6.62173
C      7.25666   19.40225    6.83484
H      6.86946   18.41408    7.13305
H      8.26691   19.28447    6.41767
H      7.31071   20.05944    7.71293
C      4.79790   20.31128    2.41530
H      3.97259   20.14739    1.69786
N      4.45630   20.85752    7.77072
H      4.69735   21.84882    7.72739
H      4.93320   20.37640    8.52737
N      3.03202   21.36133    3.75292
H      2.39490   22.13975    3.63501
H      2.57922   20.46872    3.59175
