22

O      0.66028   -0.89155   -2.25558
N      2.79878   -0.75498   -0.41972
H      3.21989   -0.62371   -1.34293
H      3.07628   -1.69324   -0.11662
Fe     0.64844   -0.50406   -0.75954
H      3.26331   -0.09277    0.20717
P      0.74444    1.76337   -1.15311
H      0.11842    2.18882   -2.35469
H      0.11819    2.61610   -0.20599
P     -0.57137   -2.45346   -0.51584
H     -1.46710   -2.73104   -1.57781
H      0.29573   -3.57644   -0.57178
H     -1.34717   -2.76182    0.63226
P     -1.98622    0.47071   -0.94972
H     -2.37131    0.04025   -2.24560
H     -2.94231   -0.23275   -0.16537
H     -2.60801    1.75281   -0.92983
P      0.55071   -0.11480    1.49588
H      0.89303   -1.19932    2.35258
H     -0.72516    0.21179    2.03277
Br     1.82145    1.46614    2.26281
Br     2.73032    2.62414   -1.30646
