29

O     -2.52031    2.14846    1.98419
Fe    -2.36175    2.19254    0.00111
N     -3.61525    3.85785   -0.31008
O     -1.93534    1.69862   -2.01175
N     -0.27231    2.48527    0.07858
O     -3.62779    0.54403   -0.05112
C     -4.86347    3.63568    0.43785
H     -5.53238    4.50470    0.31630
H     -5.36855    2.73957    0.05200
H     -4.63113    3.49711    1.50059
C     -2.86828    5.00059    0.23684
H     -1.93854    5.14802   -0.33193
H     -3.47147    5.92207    0.16007
H     -2.63430    4.81150    1.29291
C     -3.90152    4.05157   -1.73657
H     -4.44334    3.17811   -2.12810
H     -4.54251    4.93938   -1.87762
H     -2.96712    4.21191   -2.29242
H     -1.31125    1.00478   -2.27108
H     -2.51814    1.81556   -2.77573
H      0.13356    2.27808    0.99863
H     -3.86541    0.33880    0.86721
C      0.56051    2.97608   -0.75717
H      1.62068    3.14574   -0.50113
H      0.22074    3.24120   -1.76959
C     -3.80596   -0.61687   -0.87532
H     -3.06677   -1.39516   -0.62078
H     -4.82744   -1.00788   -0.74062
H     -3.67724   -0.30343   -1.91829
