24

O     -0.26817    0.75270   -3.18231
N      2.28391    0.23917   -0.58323
H      2.55434    0.24464   -1.57124
H      2.67882   -0.60959   -0.16730
Fe     0.15923    0.24040   -0.48585
H      2.75919    1.02328   -0.13002
P      0.27629    3.03788   -0.55478
H      1.11728    3.57301   -1.56651
H     -0.87528    3.83357   -0.80306
H      0.79082    3.72520    0.58078
P     -0.20068   -2.18094   -1.32815
H     -0.75509   -2.53322   -2.58381
H      0.94590   -3.01171   -1.28481
H     -1.05685   -2.89094   -0.44426
P     -2.10812    0.65938   -0.08542
H     -2.71936    1.49621   -1.06492
H     -2.89015   -0.51879   -0.18782
P      0.18089   -0.27352    1.85522
H      0.21200    0.76139    2.82724
H     -0.90334   -1.04586    2.34397
N     -2.41763    1.14634    1.49704
H     -2.08433    2.07906    1.73938
H     -3.37020    1.01522    1.84649
Br     1.89729   -1.49716    2.38916
