23

O      0.47515   -0.12822   -2.69930
O     -0.52170   -2.07818   -0.23040
O      0.08708    2.13902   -0.31843
P      1.99792   -0.26847    0.63626
N     -2.57170    0.38151   -0.15468
O     -0.64925    0.13074    1.73012
H     -0.44904   -2.37325    0.69366
H      0.25540    2.43204    0.59357
H      2.85404    0.68077    0.02715
H      2.51223   -1.49777    0.15574
H     -2.92442    1.27036    0.21352
H     -2.80285    0.39648   -1.15312
H      0.00201    0.06919    2.44469
H     -1.49736    0.26955    2.17863
Fe    -0.43807    0.06904    0.06634
H      2.51325   -0.27022    1.96078
H     -3.16462   -0.35265    0.24477
N      1.16517    2.69351   -1.07327
H      0.81768    3.60816   -1.39149
H      1.18033    2.09519   -1.90674
N      0.34449   -2.95293   -0.95283
H      0.52376   -2.42326   -1.81327
H     -0.25295   -3.74360   -1.22961
