53

O      5.86971   23.17402    7.35171
Fe     6.40390   22.40852    5.36849
P      6.06644   20.25634    5.89646
C      5.83094   18.97287    4.62135
C      4.76379   19.14873    3.54440
C      4.25682   21.62022    3.50315
C      4.49054   23.02144    2.94079
P      5.12260   23.96508    4.36317
C      5.95192   20.61414    1.79667
C      7.33510   20.69706    2.41379
P      7.70859   22.04650    3.57740
C      9.31553   21.56564    4.27610
C      8.14138   23.45212    2.51408
H      4.85960   18.28462    2.86737
H      5.01831   21.58912    4.40638
H      3.78234   19.01484    4.02520
H      5.78806   21.48019    1.13620
H      5.97723   19.75446    1.10660
H      8.08457   20.80868    1.61087
H      7.60177   19.76941    2.93416
H      8.97379   23.16096    1.85364
H      7.29028   23.75720    1.89084
H      8.46044   24.30118    3.13605
H     10.04630   21.38871    3.47007
H      9.69351   22.36996    4.92665
H      9.19847   20.64971    4.87203
H      5.28166   23.01017    2.18076
H      3.59054   23.45615    2.47590
C      3.71412   24.26749    5.44876
H      4.07790   24.82661    6.32350
H      2.94163   24.85135    4.92287
H      3.30193   23.31220    5.79922
C      5.66108   25.60242    3.83600
H      6.06535   26.13540    4.71121
H      6.43118   25.54881    3.05772
H      4.78954   26.15905    3.45378
H      5.57073   18.07418    5.20971
H      6.82284   18.75420    4.20240
C      4.40001   20.31551    6.79548
H      3.70673   20.78573    6.07654
H      4.11951   19.25044    6.88677
C      7.18527   19.50455    7.09988
H      6.79807   18.51638    7.39809
H      8.19552   19.38677    6.68271
H      7.23932   20.16174    7.97797
C      4.72651   20.41358    2.68034
H      3.90120   20.24969    1.96290
N      4.38491   20.95982    8.03576
H      4.62596   21.95112    7.99243
H      4.86181   20.47870    8.79241
N      2.96063   21.46363    4.01796
H      2.32351   22.24205    3.90005
H      2.50783   20.57102    3.85679
