24

O     -0.27905    0.76574   -3.25095
N      2.29479    0.22613   -0.51459
H      2.56522    0.23160   -1.50260
H      2.68970   -0.62263   -0.09866
Fe     0.17011    0.22736   -0.41721
H      2.77007    1.01024   -0.06138
P      0.27629    3.03788   -0.55478
H      1.11728    3.57301   -1.56651
H     -0.87528    3.83357   -0.80306
H      0.79082    3.72520    0.58078
P     -0.20068   -2.18094   -1.32815
H     -0.75509   -2.53322   -2.58381
H      0.94590   -3.01171   -1.28481
H     -1.05685   -2.89094   -0.44426
P     -2.09724    0.64634   -0.01678
H     -2.70848    1.48317   -0.99628
H     -2.87927   -0.53183   -0.11918
P      0.19177   -0.28656    1.92386
H      0.22288    0.74835    2.89588
H     -0.89246   -1.05890    2.41261
N     -2.40675    1.13330    1.56568
H     -2.07345    2.06602    1.80802
H     -3.35932    1.00218    1.91513
Br     1.90817   -1.51020    2.45780
