23

O      0.28853    0.01131   -2.03391
O     -0.34171   -2.14590   -0.36927
O      0.07797    2.13762   -0.25050
P      2.30832   -0.04866    0.12040
N     -2.24675    0.34263   -0.74133
O     -0.50235   -0.00774    1.78455
H     -0.29125   -2.72988    0.40104
H     -0.04963   -2.67424   -1.12796
H      0.21245    2.33993    0.69112
H      3.19289    0.03173   -0.98639
H      2.76829   -1.24450    0.72727
H     -2.66761    0.99697   -0.07558
H     -2.42516    0.75121   -1.66410
H     -1.32007   -0.07150    2.31196
Fe    -0.11212   -0.01423   -0.58339
H      2.84488    0.93882    0.97569
H     -2.81255   -0.51111   -0.70409
N      0.63723   -0.17022    2.58810
H      0.63611    0.57358    3.29585
H      0.55295   -1.05986    3.09300
N      1.30087    2.56617   -0.86762
H      1.15845    3.56836   -1.05404
H      1.24400    2.10899   -1.78554
