23

O     11.85662    7.01707   13.16488
Fe    13.22317    7.42165   11.69063
N     14.76589    7.74839   10.00186
N     12.14372    8.39697   10.25116
O     14.65712    8.83658   12.46867
N     13.94087    5.56176   11.31828
C     14.25117    8.86166    9.19963
H     14.69893    9.81420    9.54108
H     14.55781    8.78789    8.14083
C     12.77653    8.99928    9.31479
C     16.00918    8.02860   10.68780
H     16.43517    7.07457   11.05589
C     15.75773    8.84616   11.93577
C     14.81261    6.48208    9.27364
H     14.02495    6.46566    8.50098
H     15.77199    6.34589    8.74370
C     14.53180    5.33179   10.19639
H     12.26242    9.65555    8.59105
H     16.60306    9.41764   12.37675
H     13.72594    4.74675   11.90142
H     11.13190    8.55909   10.29247
Br    17.38233    8.82363    9.59379
Br    15.00615    3.66476    9.60958
