23

O     11.90374    7.03102   13.11405
Fe    13.17605    7.40770   11.74146
N     14.71877    7.73444   10.05269
N     12.09660    8.38302   10.30199
O     14.61000    8.82263   12.51950
N     13.89375    5.54781   11.36911
C     14.20405    8.84771    9.25046
H     14.65181    9.80025    9.59191
H     14.51069    8.77394    8.19166
C     12.72941    8.98533    9.36562
C     15.96206    8.01465   10.73863
H     16.38805    7.06062   11.10672
C     15.71061    8.83221   11.98660
C     14.76549    6.46813    9.32447
H     13.97783    6.45171    8.55181
H     15.72487    6.33194    8.79453
C     14.48468    5.31784   10.24722
H     12.21530    9.64160    8.64188
H     16.55594    9.40369   12.42758
H     13.67882    4.73280   11.95225
H     11.08478    8.54514   10.34330
Br    17.33521    8.80968    9.64462
Br    14.95903    3.65081    9.66041
