23

O      0.46251   -0.12549   -2.66103
O     -0.52170   -2.07818   -0.23040
O      0.08708    2.13902   -0.31843
P      2.01056   -0.27120    0.59799
N     -2.55906    0.37878   -0.19295
O     -0.64925    0.13074    1.73012
H     -0.44904   -2.37325    0.69366
H      0.25540    2.43204    0.59357
H      2.86668    0.67804   -0.01112
H      2.52487   -1.50050    0.11747
H     -2.91178    1.26763    0.17525
H     -2.79021    0.39375   -1.19139
H      0.00201    0.06919    2.44469
H     -1.49736    0.26955    2.17863
Fe    -0.42543    0.06631    0.02807
H      2.52589   -0.27295    1.92251
H     -3.15198   -0.35538    0.20650
N      1.16517    2.69351   -1.07327
H      0.81768    3.60816   -1.39149
H      1.18033    2.09519   -1.90674
N      0.34449   -2.95293   -0.95283
H      0.52376   -2.42326   -1.81327
H     -0.25295   -3.74360   -1.22961
