23

O      0.45303   -0.12344   -2.63232
O     -0.52170   -2.07818   -0.23040
O      0.08708    2.13902   -0.31843
P      2.02004   -0.27325    0.56928
N     -2.54958    0.37673   -0.22166
O     -0.64925    0.13074    1.73012
H     -0.44904   -2.37325    0.69366
H      0.25540    2.43204    0.59357
H      2.87616    0.67599   -0.03983
H      2.53435   -1.50255    0.08876
H     -2.90230    1.26558    0.14654
H     -2.78073    0.39170   -1.22010
H      0.00201    0.06919    2.44469
H     -1.49736    0.26955    2.17863
Fe    -0.41595    0.06426   -0.00064
H      2.53537   -0.27500    1.89380
H     -3.14250   -0.35743    0.17779
N      1.16517    2.69351   -1.07327
H      0.81768    3.60816   -1.39149
H      1.18033    2.09519   -1.90674
N      0.34449   -2.95293   -0.95283
H      0.52376   -2.42326   -1.81327
H     -0.25295   -3.74360   -1.22961
