22

O      0.54771   -0.08697   -2.34859
O     -0.13176   -2.17943   -0.07121
O      0.10773    2.16127   -0.26153
P      2.27087   -0.28448    0.37969
O     -2.14092   -0.04187   -0.40317
O     -0.64106    0.01076    1.68341
H     -0.22828   -2.85443   -0.76923
H      0.53141    2.57598    0.50515
H      0.36283    2.70154   -1.02613
H      3.18098    0.76159    0.08001
H      2.91325   -1.37900   -0.25016
H     -2.71673    0.34354   -1.07830
H     -2.42196    0.28880    0.55188
H     -0.79213   -1.01458    1.66698
Fe    -0.10069    0.05456   -0.36580
H      2.57932   -0.52764    1.74359
N     -0.93253   -2.47185    1.03290
H     -1.88513   -2.68965    0.71559
H     -0.54582   -3.29455    1.51254
N     -1.94509    0.54948    1.82075
H     -2.37163    0.13016    2.65796
H     -1.79979    1.53586    2.06131
