52

O      7.72233   23.38209    6.30476
Fe     6.02696   21.87621    4.66563
N      5.67928   20.14632    5.78629
C      5.42343   18.97223    4.91954
C      4.35268   19.24883    3.87954
P      4.76280   20.86746    3.18201
C      3.36908   21.94940    2.79144
C      3.94576   23.34281    2.95337
N      4.69049   23.50749    4.22557
C      5.79936   20.58455    1.65877
C      7.21402   20.40843    2.19966
N      7.57010   21.39073    3.23384
C      8.81201   20.98914    3.90475
C      7.74562   22.72294    2.64587
H      4.33082   18.48850    3.08231
H      2.99761   21.77646    1.76796
H      2.53633   21.74657    3.48210
H      3.34186   19.28768    4.31367
H      5.72537   21.53508    1.10489
H      7.94361   20.45277    1.37078
H      7.29835   19.40654    2.64645
H      8.54255   22.70978    1.88122
H      6.81153   23.04960    2.17209
H      8.02075   23.42811    3.44085
H      9.65511   21.00377    3.19269
H      9.01072   21.68221    4.73194
H      8.70597   19.96888    4.29292
H      4.65426   23.55116    2.13767
H      3.15505   24.11166    2.88961
C      3.76547   23.50856    5.36555
H      4.33923   23.61339    6.29466
H      3.05984   24.35403    5.28758
H      3.19096   22.57661    5.39356
C      5.40402   24.79469    4.20150
H      5.99550   24.89667    5.11817
H      6.07752   24.83486    3.33870
H      4.67903   25.62266    4.12469
H      5.13545   18.12815    5.56992
H      6.37554   18.70828    4.43998
C      4.46206   20.40371    6.65579
H      3.65810   20.68920    5.96372
H      4.73286   21.29093    7.24760
C      6.81901   19.85154    6.66745
H      6.59549   18.95788    7.27165
H      7.71609   19.66351    6.06958
H      7.00590   20.70972    7.32239
N      5.28964   19.52518    0.86787
H      5.20489   19.73477   -0.12211
H      5.76433   18.63599    0.99436
N      4.11021   19.28803    7.43012
H      3.18571   18.90507    7.27226
H      4.32009   19.34233    8.42044
