53

O      5.82048   23.24457    7.53450
Fe     6.45313   22.33797    5.18570
P      6.11567   20.18579    5.71367
C      5.88017   18.90232    4.43856
C      4.81302   19.07818    3.36161
C      4.30605   21.54967    3.32036
C      4.53977   22.95089    2.75800
P      5.17183   23.89453    4.18038
C      6.00115   20.54359    1.61388
C      7.38433   20.62651    2.23100
P      7.75782   21.97595    3.39461
C      9.36476   21.49509    4.09331
C      8.19061   23.38157    2.33129
H      4.90883   18.21407    2.68458
H      5.06754   21.51857    4.22359
H      3.83157   18.94429    3.84241
H      5.83729   21.40964    0.95341
H      6.02646   19.68391    0.92381
H      8.13380   20.73813    1.42808
H      7.65100   19.69886    2.75137
H      9.02302   23.09041    1.67085
H      7.33951   23.68665    1.70805
H      8.50967   24.23063    2.95326
H     10.09553   21.31816    3.28728
H      9.74274   22.29941    4.74386
H      9.24770   20.57916    4.68924
H      5.33089   22.93962    1.99797
H      3.63977   23.38560    2.29311
C      3.76335   24.19694    5.26597
H      4.12713   24.75606    6.14071
H      2.99086   24.78080    4.74008
H      3.35116   23.24165    5.61643
C      5.71031   25.53187    3.65321
H      6.11458   26.06485    4.52842
H      6.48041   25.47826    2.87493
H      4.83877   26.08850    3.27099
H      5.61996   18.00363    5.02692
H      6.87207   18.68365    4.01961
C      4.44924   20.24496    6.61269
H      3.75596   20.71518    5.89375
H      4.16874   19.17989    6.70398
C      7.23450   19.43400    6.91709
H      6.84730   18.44583    7.21530
H      8.24475   19.31622    6.49992
H      7.28855   20.09119    7.79518
C      4.77574   20.34303    2.49755
H      3.95043   20.17914    1.78011
N      4.43414   20.88927    7.85297
H      4.67519   21.88057    7.80964
H      4.91104   20.40815    8.60962
N      3.00986   21.39308    3.83517
H      2.37274   22.17150    3.71726
H      2.55706   20.50047    3.67400
