53

O      5.95587   23.05055    7.03184
Fe     6.31774   22.53199    5.68836
P      5.98028   20.37981    6.21633
C      5.74478   19.09634    4.94122
C      4.67763   19.27220    3.86427
C      4.17066   21.74369    3.82302
C      4.40438   23.14491    3.26066
P      5.03644   24.08855    4.68304
C      5.86576   20.73761    2.11654
C      7.24894   20.82053    2.73366
P      7.62243   22.16997    3.89727
C      9.22937   21.68911    4.59597
C      8.05522   23.57559    2.83395
H      4.77344   18.40809    3.18724
H      4.93215   21.71259    4.72625
H      3.69618   19.13831    4.34507
H      5.70190   21.60366    1.45607
H      5.89107   19.87793    1.42647
H      7.99841   20.93215    1.93074
H      7.51561   19.89288    3.25403
H      8.88763   23.28443    2.17351
H      7.20412   23.88067    2.21071
H      8.37428   24.42465    3.45592
H      9.96014   21.51218    3.78994
H      9.60735   22.49343    5.24652
H      9.11231   20.77318    5.19190
H      5.19550   23.13364    2.50063
H      3.50438   23.57962    2.79577
C      3.62796   24.39096    5.76863
H      3.99174   24.95008    6.64337
H      2.85547   24.97482    5.24274
H      3.21577   23.43567    6.11909
C      5.57492   25.72589    4.15587
H      5.97919   26.25887    5.03108
H      6.34502   25.67228    3.37759
H      4.70338   26.28252    3.77365
H      5.48457   18.19765    5.52958
H      6.73668   18.87767    4.52227
C      4.31385   20.43898    7.11535
H      3.62057   20.90920    6.39641
H      4.03335   19.37391    7.20664
C      7.09911   19.62802    7.41975
H      6.71191   18.63985    7.71796
H      8.10936   19.51024    7.00258
H      7.15316   20.28521    8.29784
C      4.64035   20.53705    3.00021
H      3.81504   20.37316    2.28277
N      4.29875   21.08329    8.35563
H      4.53980   22.07459    8.31230
H      4.77565   20.60217    9.11228
N      2.87447   21.58710    4.33783
H      2.23735   22.36552    4.21992
H      2.42167   20.69449    4.17666
