37

O      0.96679    0.41721    3.41943
N      0.12069   -2.02587    0.63565
C      1.02552   -1.97416   -0.52763
H      0.47045   -1.53021   -1.36877
H      1.31908   -2.99464   -0.83234
C     -1.24015   -2.48379    0.29379
H     -1.71467   -2.74953    1.24981
H     -1.20637   -3.39078   -0.33551
C      2.23579   -1.13237   -0.19706
H      2.82894   -1.61093    0.59668
H      2.89689   -1.04263   -1.07503
C     -2.03164   -1.40002   -0.38725
H     -3.08132   -1.71888   -0.50228
H     -1.63837   -1.14094   -1.38672
C      1.66749    1.24164   -0.71515
H      2.65188    1.56213   -1.09936
H      1.10792    0.83882   -1.57312
C     -2.52368    0.97007   -0.00965
H     -3.00589    1.45087    0.85344
H     -3.28112    0.77100   -0.78282
C     -1.39409    1.81519   -0.54522
H     -0.94569    1.34774   -1.43384
H     -1.75971    2.81342   -0.85049
C      0.94576    2.41200   -0.08586
H      1.53528    2.80819    0.75557
H      0.79583    3.23384   -0.80707
N     -0.33957    1.94950    0.47341
Fe    -0.07310    0.00157    1.32646
N      1.80453    0.18432    0.28702
O     -1.96608   -0.25996    0.47249
H      2.43317    0.50367    1.02687
N      0.58657   -2.75812    1.74150
H      1.41613   -2.30948    2.12651
H      0.83094   -3.71469    1.46319
N     -0.84567    2.64810    1.57822
H     -1.06559    3.61971    1.33229
H     -0.14881    2.63849    2.32369
