22

O      0.65819   -0.82317   -1.99157
N      2.79878   -0.75498   -0.41972
H      3.21989   -0.62371   -1.34293
H      3.07628   -1.69324   -0.11662
Fe     0.65053   -0.57244   -1.02355
H      3.26331   -0.09277    0.20717
P      0.74653    1.69499   -1.41712
H      0.12051    2.12044   -2.61870
H      0.12028    2.54772   -0.47000
P     -0.56928   -2.52184   -0.77985
H     -1.46501   -2.79942   -1.84182
H      0.29782   -3.64482   -0.83579
H     -1.34508   -2.83020    0.36825
P     -1.98622    0.47071   -0.94972
H     -2.37131    0.04025   -2.24560
H     -2.94231   -0.23275   -0.16537
H     -2.60801    1.75281   -0.92983
P      0.55280   -0.18318    1.23187
H      0.89512   -1.26770    2.08857
H     -0.72307    0.14341    1.76876
Br     1.82354    1.39776    1.99880
Br     2.73241    2.55576   -1.57047
