37

O      0.69244    0.30755    2.86724
N      0.39504   -1.91621    1.18784
C      1.29987   -1.86450    0.02456
H      0.74480   -1.42055   -0.81658
H      1.59343   -2.88498   -0.28015
C     -0.96580   -2.37413    0.84598
H     -1.44032   -2.63987    1.80200
H     -0.93202   -3.28112    0.21668
C      2.51014   -1.02271    0.35513
H      3.10329   -1.50127    1.14887
H      3.17124   -0.93297   -0.52284
C     -1.75729   -1.29036    0.16494
H     -2.80697   -1.60922    0.04991
H     -1.36402   -1.03128   -0.83453
C      1.94184    1.35130   -0.16296
H      2.92623    1.67179   -0.54717
H      1.38227    0.94848   -1.02093
C     -2.24933    1.07973    0.54254
H     -2.73154    1.56053    1.40563
H     -3.00677    0.88066   -0.23063
C     -1.11974    1.92485    0.00697
H     -0.67134    1.45740   -0.88165
H     -1.48536    2.92308   -0.29830
C      1.22011    2.52166    0.46633
H      1.80963    2.91785    1.30776
H      1.07018    3.34350   -0.25488
N     -0.06522    2.05916    1.02560
Fe     0.20125    0.11123    1.87865
N      2.07888    0.29398    0.83921
O     -1.69173   -0.15030    1.02468
H      2.70752    0.61333    1.57906
N      0.86092   -2.64846    2.29369
H      1.69048   -2.19982    2.67870
H      1.10529   -3.60503    2.01538
N     -0.57132    2.75776    2.13041
H     -0.79124    3.72937    1.88448
H      0.12554    2.74815    2.87588
