24

O     -0.13762    0.59621   -2.35867
N      2.15336    0.39566   -1.40687
H      2.42379    0.40113   -2.39488
H      2.54827   -0.45310   -0.99094
Fe     0.02868    0.39689   -1.30949
H      2.62864    1.17977   -0.95366
P      0.27629    3.03788   -0.55478
H      1.11728    3.57301   -1.56651
H     -0.87528    3.83357   -0.80306
H      0.79082    3.72520    0.58078
P     -0.20068   -2.18094   -1.32815
H     -0.75509   -2.53322   -2.58381
H      0.94590   -3.01171   -1.28481
H     -1.05685   -2.89094   -0.44426
P     -2.23867    0.81587   -0.90906
H     -2.84991    1.65270   -1.88856
H     -3.02070   -0.36230   -1.01146
P      0.05034   -0.11703    1.03158
H      0.08145    0.91788    2.00360
H     -1.03389   -0.88937    1.52033
N     -2.54818    1.30283    0.67340
H     -2.21488    2.23555    0.91574
H     -3.50075    1.17171    1.02285
Br     1.76674   -1.34067    1.56552
