36

O      7.86988   22.68784    6.95876
Fe     5.93903   21.68547    4.89306
N      5.16570   19.98202    5.66813
C      5.37860   18.98186    4.59217
C      4.39365   19.18258    3.44549
C      3.52306   21.69994    2.85132
C      4.25177   23.02624    3.06770
N      4.72428   23.25014    4.44663
C      5.51810   20.61019    1.56874
C      6.91677   20.60912    2.12384
O      7.07497   21.54394    3.22684
H      4.57179   18.31653    2.78851
H      2.99820   21.91837    1.90583
H      3.38819   19.00152    3.85863
H      5.35667   21.52345    0.97436
H      5.53845   19.79517    0.82484
H      7.62796   20.91587    1.33965
H      7.21917   19.60998    2.47981
H      5.12040   23.12635    2.40118
H      3.55413   23.84036    2.80498
H      6.42013   19.12823    4.25221
C      4.30312   20.38715    2.48211
H      3.56926   19.95871    1.78050
H      5.68367   19.71745    6.51290
H      4.17678   19.99955    5.93862
H      8.01270   21.76797    3.34161
H      5.22276   24.14259    4.52691
H      3.92999   23.32039    5.09179
C      2.43259   21.48557    3.88564
H      1.77974   22.37003    3.96030
H      1.78787   20.63590    3.61742
H      2.82947   21.28271    4.89426
C      5.27450   17.57537    5.15761
H      5.51264   16.83388    4.38072
H      5.97930   17.42567    5.99074
H      4.25183   17.37688    5.51703
