22

O      0.65912   -0.85356   -2.10891
N      2.79878   -0.75498   -0.41972
H      3.21989   -0.62371   -1.34293
H      3.07628   -1.69324   -0.11662
Fe     0.64960   -0.54205   -0.90621
H      3.26331   -0.09277    0.20717
P      0.74560    1.72538   -1.29978
H      0.11958    2.15083   -2.50136
H      0.11935    2.57811   -0.35266
P     -0.57021   -2.49145   -0.66251
H     -1.46594   -2.76903   -1.72448
H      0.29689   -3.61443   -0.71845
H     -1.34601   -2.79981    0.48559
P     -1.98622    0.47071   -0.94972
H     -2.37131    0.04025   -2.24560
H     -2.94231   -0.23275   -0.16537
H     -2.60801    1.75281   -0.92983
P      0.55187   -0.15279    1.34921
H      0.89419   -1.23731    2.20591
H     -0.72400    0.17380    1.88610
Br     1.82261    1.42815    2.11614
Br     2.73148    2.58615   -1.45313
