18

O      0.72357   -0.09224   -2.23066
O     -0.30754   -2.07928   -0.04886
O      0.42454    2.07215   -0.00337
N      2.26134   -0.39515    0.29575
O     -1.87800    0.34074   -0.54394
O     -0.33312    0.05252    1.71435
H     -0.53100   -2.49894    0.80201
H      0.34529    2.52785    0.85452
H      2.85652    0.34072   -0.09855
H      2.57930   -1.26469   -0.14472
H     -2.16696    1.17628   -0.94383
H     -2.43112   -0.34195   -0.95570
H      0.09815   -0.02801    2.57767
H     -1.27174    0.21562    1.89506
Fe     0.23516   -0.03097   -0.26093
H      2.50618   -0.46595    1.28729
Br     1.23406    3.27210   -1.16114
Br     0.09532   -3.45819   -1.22054
