23

O      0.29391    0.01165   -2.05338
O     -0.34171   -2.14590   -0.36927
O      0.07797    2.13762   -0.25050
P      2.30294   -0.04900    0.13987
N     -2.25213    0.34229   -0.72186
O     -0.50235   -0.00774    1.78455
H     -0.29125   -2.72988    0.40104
H     -0.04963   -2.67424   -1.12796
H      0.21245    2.33993    0.69112
H      3.18751    0.03139   -0.96692
H      2.76291   -1.24484    0.74674
H     -2.67299    0.99663   -0.05611
H     -2.43054    0.75087   -1.64463
H     -1.32007   -0.07150    2.31196
Fe    -0.11750   -0.01457   -0.56392
H      2.83950    0.93848    0.99516
H     -2.81793   -0.51145   -0.68462
N      0.63723   -0.17022    2.58810
H      0.63611    0.57358    3.29585
H      0.55295   -1.05986    3.09300
N      1.30087    2.56617   -0.86762
H      1.15845    3.56836   -1.05404
H      1.24400    2.10899   -1.78554
