22

O      0.65588   -0.30706   -2.82503
O     -0.66709   -2.13712   -0.38183
O     -0.44547    1.92249    0.54200
P      1.96049   -0.51264    0.61295
O     -2.35339    0.11938   -0.75358
O     -0.76755   -0.13725    1.74867
H     -0.72924   -2.43266    0.54358
H     -0.92335    1.98561    1.45528
H     -0.04455    2.75619    0.26229
H      2.88340    0.36876   -0.00270
H      2.39709   -1.77710    0.14831
H     -2.71514    0.87660   -1.24004
H     -2.86977   -0.64808   -1.04523
H      0.06134   -0.08743    2.25404
Fe    -0.40305   -0.01227   -0.03365
H      2.45535   -0.53019    1.94530
N      0.19404   -3.08776   -1.01502
H     -0.43151   -3.85283   -1.30283
H      0.44633   -2.60182   -1.88377
N     -1.42320    1.10119    2.01296
H     -2.39675    0.90660    1.75224
H     -1.43649    1.24044    3.03273
