33

O      6.70621   22.44441    6.45217
Fe     6.41452   21.98384    5.51892
N      6.17113   19.91383    6.06083
C      5.86320   19.03124    4.92754
C      4.70065   19.46649    4.05078
C      4.11964   22.00824    3.98011
C      4.61225   23.38386    3.54888
N      5.91547   23.65180    4.17005
C      6.04481   20.94739    2.41674
C      7.45184   20.91482    2.95598
N      7.75355   21.39727    4.13663
H      4.58744   18.65496    3.31354
H      3.04158   21.95396    3.74954
H      3.75513   19.43159    4.62040
H      5.97735   21.87808    1.82765
H      5.98985   20.15223    1.65670
H      4.65012   23.46524    2.45283
H      3.88327   24.13853    3.88411
H      5.64836   18.01157    5.29250
H      6.77680   18.94884    4.32196
C      4.76711   20.78519    3.26000
H      4.03355   20.62996    2.45239
H      7.04501   19.61167    6.50114
H      5.46989   19.81476    6.79988
H      8.74962   21.36906    4.36448
H      6.66462   23.72576    3.48212
H      5.91637   24.53619    4.68148
N      8.36700   20.42380    2.11872
H      9.35830   20.43416    2.34066
H      8.11204   20.07513    1.20112
N      4.30389   21.95910    5.43477
H      3.87014   22.76622    5.89172
H      3.84878   21.13753    5.83184
