23

O      0.37403   -0.10638   -2.39307
O     -0.52170   -2.07818   -0.23040
O      0.08708    2.13902   -0.31843
P      2.09904   -0.29031    0.33003
N     -2.47058    0.35967   -0.46091
O     -0.64925    0.13074    1.73012
H     -0.44904   -2.37325    0.69366
H      0.25540    2.43204    0.59357
H      2.95516    0.65893   -0.27908
H      2.61335   -1.51961   -0.15049
H     -2.82330    1.24852   -0.09271
H     -2.70173    0.37464   -1.45935
H      0.00201    0.06919    2.44469
H     -1.49736    0.26955    2.17863
Fe    -0.33695    0.04720   -0.23989
H      2.61437   -0.29206    1.65455
H     -3.06350   -0.37449   -0.06146
N      1.16517    2.69351   -1.07327
H      0.81768    3.60816   -1.39149
H      1.18033    2.09519   -1.90674
N      0.34449   -2.95293   -0.95283
H      0.52376   -2.42326   -1.81327
H     -0.25295   -3.74360   -1.22961
