16

H 0.000000 0.000000 0.000000
H 0.000000 0.000000 2.612121
H 0.000000 0.000000 5.224242
H 0.000000 0.000000 7.836364
H 0.000000 0.000000 10.448485
H 0.000000 0.000000 13.060606
H 0.000000 0.000000 15.672727
H 0.000000 0.000000 18.284848
H 0.000000 0.000000 20.896970
H 0.000000 0.000000 23.509091
H 0.000000 0.000000 26.121212
H 0.000000 0.000000 28.733333
H 0.000000 0.000000 31.345455
H 0.000000 0.000000 33.957576
H 0.000000 0.000000 36.569697
H 0.000000 0.000000 39.181818
