22

O      0.66222   -0.95486   -2.50003
N      2.79878   -0.75498   -0.41972
H      3.21989   -0.62371   -1.34293
H      3.07628   -1.69324   -0.11662
Fe     0.64650   -0.44075   -0.51509
H      3.26331   -0.09277    0.20717
P      0.74250    1.82668   -0.90866
H      0.11648    2.25213   -2.11024
H      0.11625    2.67941    0.03846
P     -0.57331   -2.39015   -0.27139
H     -1.46904   -2.66773   -1.33336
H      0.29379   -3.51313   -0.32733
H     -1.34911   -2.69851    0.87671
P     -1.98622    0.47071   -0.94972
H     -2.37131    0.04025   -2.24560
H     -2.94231   -0.23275   -0.16537
H     -2.60801    1.75281   -0.92983
P      0.54877   -0.05149    1.74033
H      0.89109   -1.13601    2.59703
H     -0.72710    0.27510    2.27722
Br     1.81951    1.52945    2.50726
Br     2.72838    2.68745   -1.06201
