52

O      7.48975   23.17551    6.07990
Fe     6.25954   22.08279    4.89049
N      5.91186   20.35290    6.01115
C      5.65601   19.17881    5.14440
C      4.58526   19.45541    4.10440
P      4.99538   21.07404    3.40687
C      3.60166   22.15598    3.01630
C      4.17834   23.54939    3.17823
N      4.92307   23.71407    4.45043
C      6.03194   20.79113    1.88363
C      7.44660   20.61501    2.42452
N      7.80268   21.59731    3.45870
C      9.04459   21.19572    4.12961
C      7.97820   22.92952    2.87073
H      4.56340   18.69508    3.30717
H      3.23019   21.98304    1.99282
H      2.76891   21.95315    3.70696
H      3.57444   19.49426    4.53853
H      5.95795   21.74166    1.32975
H      8.17619   20.65935    1.59564
H      7.53093   19.61312    2.87131
H      8.77513   22.91636    2.10608
H      7.04411   23.25618    2.39695
H      8.25333   23.63469    3.66571
H      9.88769   21.21035    3.41755
H      9.24330   21.88879    4.95680
H      8.93855   20.17546    4.51778
H      4.88684   23.75774    2.36253
H      3.38763   24.31824    3.11447
C      3.99805   23.71514    5.59041
H      4.57181   23.81997    6.51952
H      3.29242   24.56061    5.51244
H      3.42354   22.78319    5.61842
C      5.63660   25.00127    4.42636
H      6.22808   25.10325    5.34303
H      6.31010   25.04144    3.56356
H      4.91161   25.82924    4.34955
H      5.36803   18.33473    5.79478
H      6.60812   18.91486    4.66484
C      4.69464   20.61029    6.88065
H      3.89068   20.89578    6.18858
H      4.96544   21.49751    7.47246
C      7.05159   20.05812    6.89231
H      6.82807   19.16446    7.49651
H      7.94867   19.87009    6.29444
H      7.23848   20.91630    7.54725
N      5.52222   19.73176    1.09273
H      5.43747   19.94135    0.10275
H      5.99691   18.84257    1.21922
N      4.34279   19.49461    7.65498
H      3.41829   19.11165    7.49712
H      4.55267   19.54891    8.64530
