17

O      0.00000    0.00000    1.73434
Fe     0.00000    0.00000   -0.13434
O     -0.02532   -2.04942   -0.17611
O      0.01885    2.04941   -0.17983
O     -2.09136   -0.00340   -0.32464
O      2.09172    0.00000   -0.32059
O      0.00000    0.00000   -2.18434
H      0.26040   -2.63210   -0.90173
H      0.04961   -2.57039    0.64403
H     -0.25655    2.63228   -0.90921
H     -0.05040    2.57471    0.63798
H     -2.58023    0.46315    0.37962
H     -2.52460   -0.87680   -0.36241
H      2.52747    0.87055   -0.38514
H      2.57839   -0.44571    0.39858
H     -0.77522    0.08407   -2.76497
H      0.77001   -0.10212   -2.76893
