23

O      0.41855   -0.61085   -2.52991
O     -0.70798   -2.09882    0.56415
O      0.18933    2.08207   -0.28257
P      2.30972   -0.55754    0.05634
N     -2.39814    0.38496   -0.13012
O     -0.47882    0.27163    1.69224
H     -1.15117   -2.50871    1.32119
H     -0.58534   -2.78812   -0.10569
H      3.16724    0.33118   -0.64201
H      2.77127   -1.79303   -0.46383
H     -2.58293    1.11938   -0.81869
H     -2.91159   -0.43774   -0.45991
H     -0.05123   -0.17854    2.43422
H     -0.23636    1.24145    1.77340
Fe    -0.29978   -0.06175    0.11795
H      2.94239   -0.56589    1.32942
H     -2.84882    0.67296    0.74319
N      0.24389    2.71179    0.98275
H      1.19077    3.09130    1.11489
H     -0.41483    3.50186    0.97497
N      0.49817    2.81617   -1.41346
H     -0.13512    3.62353   -1.46170
H      1.46051    3.16516   -1.32741
