45

O     -0.35487   -3.18579    0.48336
Fe    -0.20488   -2.13027    2.01808
N      1.90427   -2.25941    2.49177
N      0.30669   -0.24427    1.21080
N     -2.24183   -1.80229    2.62770
O     -0.13951   -1.98574    4.19719
C     -0.02213   -0.16628   -0.22026
C      1.76390   -0.07913    1.40758
C      2.25223   -0.83174    2.62317
C      2.70866   -2.91497    1.45348
C     -0.42794    0.77961    1.99027
C     -1.93534    0.63022    2.03195
C     -2.47565   -0.39304    3.00412
C     -3.12552   -2.21874    1.52817
C      1.09407   -2.33107    4.80659
C      1.89964   -3.02327    3.73645
C     -1.35061   -2.36455    4.85305
C     -2.34783   -2.71022    3.76469
H     -2.94000   -3.27288    1.28954
H     -4.17821   -2.08715    1.82481
H     -2.91571   -1.61648    0.63736
H      0.25355    0.82428   -0.62018
H      0.51708   -0.95380   -0.76002
H     -1.09506   -0.32647   -0.37267
H      2.01322    0.99067    1.50765
H      2.27095   -0.43261    0.50149
H      2.55459   -2.41707    0.49096
H      3.77791   -2.88325    1.72196
H      2.38506   -3.95659    1.35052
H      1.77147   -0.42586    3.52157
H      3.34156   -0.69818    2.74291
H      2.91249   -3.29706    4.08022
H     -1.19014   -3.25473    5.47955
H     -1.69929   -1.53885    5.49357
H     -2.15915   -3.72637    3.38341
H     -2.01783   -0.22430    3.98712
H     -3.56241   -0.25832    3.13395
H     -2.32965    1.60266    2.36852
H     -2.35768    0.50094    1.02512
H     -0.02840    0.76672    3.01650
H     -0.17083    1.76362    1.55793
H      1.59384   -1.42343    5.18599
H      0.94793   -3.01075    5.65922
Br     0.96264   -4.70113    3.37186
Br    -4.09870   -2.77128    4.57183
