54

O      7.11623   22.74170    6.41432
Fe     6.26902   22.27450    5.20916
P      6.07972   20.24579    6.28030
C      5.34896   18.94926    5.20680
C      4.32928   19.62530    4.31174
P      5.14743   21.11763    3.65953
C      3.89721   22.26652    3.02402
C      4.43593   23.66617    3.23533
N      5.08951   23.91587    4.54374
C      6.25294   20.58089    2.29243
C      7.68709   20.54380    2.78969
P      8.01633   22.11454    3.67516
C      9.62581   21.97679    4.47824
C      8.28874   23.31521    2.34359
H      3.96782   18.98034    3.49398
H      3.69554   22.08693    1.95555
H      2.96427   22.07623    3.56860
H      3.45196   19.96482    4.88655
H      6.13685   21.31235    1.47609
H      5.91395   19.60700    1.90315
H      8.40762   20.39410    1.96833
H      7.83697   19.72673    3.51300
H      9.09418   22.94041    1.69078
H      7.38200   23.46608    1.74230
H      8.60366   24.27719    2.77417
H     10.40462   21.73783    3.73650
H      9.84909   22.94181    4.95819
H      9.59929   21.20867    5.26067
H      5.20594   23.85912    2.47464
H      3.64187   24.41664    3.07666
C      4.13319   24.14361    5.64610
H      4.74317   24.44583    6.50556
H      3.48916   25.00458    5.39002
C      5.92198   25.13824    4.34226
H      6.63093   24.88329    3.54517
H      5.25227   25.91640    3.93031
H      4.91221   18.14380    5.81974
H      6.16560   18.50413    4.61580
C      5.07011   20.26291    7.77887
H      4.01804   20.46588    7.53746
H      5.14835   19.27929    8.26946
H      5.44507   21.04302    8.45444
C      7.69645   19.64391    6.80016
H      7.57485   18.71093    7.37393
H      8.32443   19.44701    5.92118
H      8.17083   20.41577    7.42321
C      6.66289   25.68577    5.53137
H      5.99421   26.07921    6.30977
H      7.33095   24.93654    5.97498
H      7.27197   26.53434    5.18324
C      3.31026   22.93626    6.02165
H      2.92269   23.05084    7.04430
H      2.44872   22.77086    5.36241
H      3.94490   22.03319    6.00329
