36

O      7.34979   22.41784    6.40234
Fe     6.45912   21.95547    5.44948
N      5.68579   20.25202    6.22455
C      5.89869   19.25186    5.14859
C      4.91374   19.45258    4.00191
C      4.04315   21.96994    3.40774
C      4.77186   23.29624    3.62412
N      5.24437   23.52014    5.00305
C      6.03819   20.88019    2.12516
C      7.43686   20.87912    2.68026
O      7.59506   21.81394    3.78326
H      5.09188   18.58653    3.34493
H      3.51829   22.18837    2.46225
H      3.90828   19.27152    4.41505
H      5.87676   21.79345    1.53078
H      6.05854   20.06517    1.38126
H      8.14805   21.18587    1.89607
H      7.73926   19.87998    3.03623
H      5.64049   23.39635    2.95760
H      4.07422   24.11036    3.36140
H      6.94022   19.39823    4.80863
C      4.82321   20.65715    3.03853
H      4.08935   20.22871    2.33692
H      6.20376   19.98745    7.06932
H      4.69687   20.26955    6.49504
H      8.53279   22.03797    3.89803
H      5.74285   24.41259    5.08333
H      4.45008   23.59039    5.64821
C      2.95268   21.75557    4.44206
H      2.29983   22.64003    4.51672
H      2.30796   20.90590    4.17384
H      3.34956   21.55271    5.45068
C      5.79459   17.84537    5.71403
H      6.03273   17.10388    4.93714
H      6.49939   17.69567    6.54716
H      4.77192   17.64688    6.07345
