52

O      7.20821   22.92543    5.80769
Fe     6.54108   22.33287    5.16270
N      6.19340   20.60298    6.28336
C      5.93755   19.42889    5.41661
C      4.86680   19.70549    4.37661
P      5.27692   21.32412    3.67908
C      3.88320   22.40606    3.28851
C      4.45988   23.79947    3.45044
N      5.20461   23.96415    4.72264
C      6.31348   21.04121    2.15584
C      7.72814   20.86509    2.69673
N      8.08422   21.84739    3.73091
C      9.32613   21.44580    4.40182
C      8.25974   23.17960    3.14294
H      4.84494   18.94516    3.57938
H      3.51173   22.23312    2.26503
H      3.05045   22.20323    3.97917
H      3.85598   19.74434    4.81074
H      6.23949   21.99174    1.60196
H      8.45773   20.90943    1.86785
H      7.81247   19.86320    3.14352
H      9.05667   23.16644    2.37829
H      7.32565   23.50626    2.66916
H      8.53487   23.88477    3.93792
H     10.16923   21.46043    3.68976
H      9.52484   22.13887    5.22901
H      9.22009   20.42554    4.78999
H      5.16838   24.00782    2.63474
H      3.66917   24.56832    3.38668
C      4.27959   23.96522    5.86262
H      4.85335   24.07005    6.79173
H      3.57396   24.81069    5.78465
H      3.70508   23.03327    5.89063
C      5.91814   25.25135    4.69857
H      6.50962   25.35333    5.61524
H      6.59164   25.29152    3.83577
H      5.19315   26.07932    4.62176
H      5.64957   18.58481    6.06699
H      6.88966   19.16494    4.93705
C      4.97618   20.86037    7.15286
H      4.17222   21.14586    6.46079
H      5.24698   21.74759    7.74467
C      7.33313   20.30820    7.16452
H      7.10961   19.41454    7.76872
H      8.23021   20.12017    6.56665
H      7.52002   21.16638    7.81946
N      5.80376   19.98184    1.36494
H      5.71901   20.19143    0.37496
H      6.27845   19.09265    1.49143
N      4.62433   19.74469    7.92719
H      3.69983   19.36173    7.76933
H      4.83421   19.79899    8.91751
