19

O      0.60312   -0.16343   -1.65849
O      0.02962   -2.17523   -0.38318
O      0.59253    2.01272   -0.48055
P      2.79994   -0.42244   -0.20301
P     -2.22553    0.28254   -0.92454
O     -0.19929    0.04417    1.85116
H     -0.54476   -2.58640    0.28019
H     -0.07309   -2.69807   -1.19382
H      0.73836    2.46194    0.36598
H      1.23057    2.40050   -1.10195
H      3.35041   -1.48948   -0.96244
H     -2.38730    1.24743   -1.95659
H      0.37968   -0.22737    2.57891
H     -1.02912    0.31306    2.27257
Fe     0.32410   -0.08852   -0.63798
H      3.39743   -0.69263    1.06231
H     -3.31886    0.66526   -0.09332
Br    -2.95938   -1.53617   -1.85346
Br     3.91125    1.30490   -0.88715
