37

O      0.83404    0.36415    3.15224
N      0.25344   -1.97281    0.90284
C      1.15827   -1.92110   -0.26044
H      0.60320   -1.47715   -1.10158
H      1.45183   -2.94158   -0.56515
C     -1.10740   -2.43073    0.56098
H     -1.58192   -2.69647    1.51700
H     -1.07362   -3.33772   -0.06832
C      2.36854   -1.07931    0.07013
H      2.96169   -1.55787    0.86387
H      3.02964   -0.98957   -0.80784
C     -1.89889   -1.34696   -0.12006
H     -2.94857   -1.66582   -0.23509
H     -1.50562   -1.08788   -1.11953
C      1.80024    1.29470   -0.44796
H      2.78463    1.61519   -0.83217
H      1.24067    0.89188   -1.30593
C     -2.39093    1.02313    0.25754
H     -2.87314    1.50393    1.12063
H     -3.14837    0.82406   -0.51563
C     -1.26134    1.86825   -0.27803
H     -0.81294    1.40080   -1.16665
H     -1.62696    2.86648   -0.58330
C      1.07851    2.46506    0.18133
H      1.66803    2.86125    1.02276
H      0.92858    3.28690   -0.53988
N     -0.20682    2.00256    0.74060
Fe     0.05965    0.05463    1.59365
N      1.93728    0.23738    0.55421
O     -1.83333   -0.20690    0.73968
H      2.56592    0.55673    1.29406
N      0.71932   -2.70506    2.00869
H      1.54888   -2.25642    2.39370
H      0.96369   -3.66163    1.73038
N     -0.71292    2.70116    1.84541
H     -0.93284    3.67277    1.59948
H     -0.01606    2.69155    2.59088
