29

O     11.95260    7.19730   13.12306
Fe    13.33956    7.51046   11.70224
N     14.80797    7.77405    9.97728
N     12.20108    8.29233   10.17661
O     14.89118    8.60277   12.55088
N     13.90701    5.58026   11.27206
C     14.29132    8.89233    9.15834
H     14.63977    8.79040    8.11264
C     12.79413    8.84390    9.18585
C     16.10257    8.00124   10.60573
H     16.56798    7.02455   10.83380
H     16.82591    8.52211    9.95578
C     15.97564    8.66629   11.95439
C     14.77212    6.50780    9.24280
H     13.98228    6.54095    8.46901
H     15.70811    6.31196    8.68642
C     14.42921    5.35916   10.12499
H     12.23863    9.35409    8.38083
H     14.60348    4.33725    9.74554
H     13.64832    4.75503   11.82267
H     11.17733    8.34594   10.18545
C     14.68562   10.28123    9.64810
H     14.35359   10.45617   10.68106
H     15.76904   10.44177    9.56319
H     14.20780   11.04098    9.01059
C     17.14884    9.33151   12.54070
H     17.02959    9.47329   13.62341
H     18.08061    8.79390   12.29988
H     17.24013   10.32712   12.06394
