22

O      0.62023   -0.29714   -2.73104
O     -0.66709   -2.13712   -0.38183
O     -0.40982    1.91257    0.44801
P      1.99614   -0.52256    0.51896
O     -2.35339    0.11938   -0.75358
O     -0.76755   -0.13725    1.74867
H     -0.72924   -2.43266    0.54358
H     -0.88770    1.97569    1.36129
H     -0.00890    2.74627    0.16830
H      2.91905    0.35884   -0.09669
H      2.43274   -1.78702    0.05432
H     -2.71514    0.87660   -1.24004
H     -2.86977   -0.64808   -1.04523
H      0.06134   -0.08743    2.25404
Fe    -0.36740   -0.02219   -0.12764
H      2.49100   -0.54011    1.85131
N      0.19404   -3.08776   -1.01502
H     -0.43151   -3.85283   -1.30283
H      0.44633   -2.60182   -1.88377
N     -1.42320    1.10119    2.01296
H     -2.39675    0.90660    1.75224
H     -1.43649    1.24044    3.03273
