23

O     12.00472    7.06091   13.00511
Fe    13.07507    7.37781   11.85040
N     14.61779    7.70455   10.16163
N     11.99562    8.35313   10.41093
O     14.50902    8.79274   12.62844
N     13.79277    5.51792   11.47805
C     14.10307    8.81782    9.35940
H     14.55083    9.77036    9.70085
H     14.40971    8.74405    8.30060
C     12.62843    8.95544    9.47456
C     15.86108    7.98476   10.84757
H     16.28707    7.03073   11.21566
C     15.60963    8.80232   12.09554
C     14.66451    6.43824    9.43341
H     13.87685    6.42182    8.66075
H     15.62389    6.30205    8.90347
C     14.38370    5.28795   10.35616
H     12.11432    9.61171    8.75082
H     16.45496    9.37380   12.53652
H     13.57784    4.70291   12.06119
H     10.98380    8.51525   10.45224
Br    17.23423    8.77979    9.75356
Br    14.85805    3.62092    9.76935
