18

O      0.67983   -0.08676   -2.05427
O     -0.26380   -2.08476   -0.22525
O      0.46828    2.06667   -0.17976
N      2.30508   -0.40063    0.11936
O     -1.87800    0.34074   -0.54394
O     -0.33312    0.05252    1.71435
H     -0.48726   -2.50442    0.62562
H      0.38903    2.52237    0.67813
H      2.90026    0.33524   -0.27494
H      2.62304   -1.27017   -0.32111
H     -2.16696    1.17628   -0.94383
H     -2.43112   -0.34195   -0.95570
H      0.09815   -0.02801    2.57767
H     -1.27174    0.21562    1.89506
Fe     0.27890   -0.03645   -0.43732
H      2.54992   -0.47143    1.11090
Br     1.27780    3.26662   -1.33753
Br     0.13906   -3.46367   -1.39693
