52

O      7.47751   23.16464    6.06806
Fe     6.27178   22.09366    4.90233
N      5.92410   20.36377    6.02299
C      5.66825   19.18968    5.15624
C      4.59750   19.46628    4.11624
P      5.00762   21.08491    3.41871
C      3.61390   22.16685    3.02814
C      4.19058   23.56026    3.19007
N      4.93531   23.72494    4.46227
C      6.04418   20.80200    1.89547
C      7.45884   20.62588    2.43636
N      7.81492   21.60818    3.47054
C      9.05683   21.20659    4.14145
C      7.99044   22.94039    2.88257
H      4.57564   18.70595    3.31901
H      3.24243   21.99391    2.00466
H      2.78115   21.96402    3.71880
H      3.58668   19.50513    4.55037
H      5.97019   21.75253    1.34159
H      8.18843   20.67022    1.60748
H      7.54317   19.62399    2.88315
H      8.78737   22.92723    2.11792
H      7.05635   23.26705    2.40879
H      8.26557   23.64556    3.67755
H      9.89993   21.22122    3.42939
H      9.25554   21.89966    4.96864
H      8.95079   20.18633    4.52962
H      4.89908   23.76861    2.37437
H      3.39987   24.32911    3.12631
C      4.01029   23.72601    5.60225
H      4.58405   23.83084    6.53136
H      3.30466   24.57148    5.52428
H      3.43578   22.79406    5.63026
C      5.64884   25.01214    4.43820
H      6.24032   25.11412    5.35487
H      6.32234   25.05231    3.57540
H      4.92385   25.84011    4.36139
H      5.38027   18.34560    5.80662
H      6.62036   18.92573    4.67668
C      4.70688   20.62116    6.89249
H      3.90292   20.90665    6.20042
H      4.97768   21.50838    7.48430
C      7.06383   20.06899    6.90415
H      6.84031   19.17533    7.50835
H      7.96091   19.88096    6.30628
H      7.25072   20.92717    7.55909
N      5.53446   19.74263    1.10457
H      5.44971   19.95222    0.11459
H      6.00915   18.85344    1.23106
N      4.35503   19.50548    7.66682
H      3.43053   19.12252    7.50896
H      4.56491   19.55978    8.65714
