22

O      0.50073   -0.07671   -2.20491
O     -0.13176   -2.17943   -0.07121
O      0.10773    2.16127   -0.26153
P      2.31785   -0.29474    0.23601
O     -2.09394   -0.05213   -0.54685
O     -0.64106    0.01076    1.68341
H     -0.22828   -2.85443   -0.76923
H      0.53141    2.57598    0.50515
H      0.36283    2.70154   -1.02613
H      3.22796    0.75133   -0.06367
H      2.96023   -1.38926   -0.39384
H     -2.66975    0.33328   -1.22198
H     -2.37498    0.27854    0.40820
H     -0.79213   -1.01458    1.66698
Fe    -0.05371    0.04430   -0.50948
H      2.62630   -0.53790    1.59991
N     -0.93253   -2.47185    1.03290
H     -1.88513   -2.68965    0.71559
H     -0.54582   -3.29455    1.51254
N     -1.94509    0.54948    1.82075
H     -2.37163    0.13016    2.65796
H     -1.79979    1.53586    2.06131
