10

H 0.000000 0.000000 0.000000
H 0.000000 0.000000 2.636364
H 0.000000 0.000000 5.272727
H 0.000000 0.000000 7.909091
H 0.000000 0.000000 10.545455
H 0.000000 0.000000 13.181818
H 0.000000 0.000000 15.818182
H 0.000000 0.000000 18.454545
H 0.000000 0.000000 21.090909
H 0.000000 0.000000 23.727273
