53

O      5.97556   23.02233    6.95872
Fe     6.29805   22.56021    5.76148
P      5.96059   20.40803    6.28945
C      5.72509   19.12456    5.01434
C      4.65794   19.30042    3.93739
C      4.15097   21.77191    3.89614
C      4.38469   23.17313    3.33378
P      5.01675   24.11677    4.75616
C      5.84607   20.76583    2.18966
C      7.22925   20.84875    2.80678
P      7.60274   22.19819    3.97039
C      9.20968   21.71733    4.66909
C      8.03553   23.60381    2.90707
H      4.75375   18.43631    3.26036
H      4.91246   21.74081    4.79937
H      3.67649   19.16653    4.41819
H      5.68221   21.63188    1.52919
H      5.87138   19.90615    1.49959
H      7.97872   20.96037    2.00386
H      7.49592   19.92110    3.32715
H      8.86794   23.31265    2.24663
H      7.18443   23.90889    2.28383
H      8.35459   24.45287    3.52904
H      9.94045   21.54040    3.86306
H      9.58766   22.52165    5.31964
H      9.09262   20.80140    5.26502
H      5.17581   23.16186    2.57375
H      3.48469   23.60784    2.86889
C      3.60827   24.41918    5.84175
H      3.97205   24.97830    6.71649
H      2.83578   25.00304    5.31586
H      3.19608   23.46389    6.19221
C      5.55523   25.75411    4.22899
H      5.95950   26.28709    5.10420
H      6.32533   25.70050    3.45071
H      4.68369   26.31074    3.84677
H      5.46488   18.22587    5.60270
H      6.71699   18.90589    4.59539
C      4.29416   20.46720    7.18847
H      3.60088   20.93742    6.46953
H      4.01366   19.40213    7.27976
C      7.07942   19.65624    7.49287
H      6.69222   18.66807    7.79108
H      8.08967   19.53846    7.07570
H      7.13347   20.31343    8.37096
C      4.62066   20.56527    3.07333
H      3.79535   20.40138    2.35589
N      4.27906   21.11151    8.42875
H      4.52011   22.10281    8.38542
H      4.75596   20.63039    9.18540
N      2.85478   21.61532    4.41095
H      2.21766   22.39374    4.29304
H      2.40198   20.72271    4.24978
