53

O      5.95833   23.04702    7.02270
Fe     6.31528   22.53552    5.69750
P      5.97782   20.38334    6.22547
C      5.74232   19.09987    4.95036
C      4.67517   19.27573    3.87341
C      4.16820   21.74722    3.83216
C      4.40192   23.14844    3.26980
P      5.03398   24.09208    4.69218
C      5.86330   20.74114    2.12568
C      7.24648   20.82406    2.74280
P      7.61997   22.17350    3.90641
C      9.22691   21.69264    4.60511
C      8.05276   23.57912    2.84309
H      4.77098   18.41162    3.19638
H      4.92969   21.71612    4.73539
H      3.69372   19.14184    4.35421
H      5.69944   21.60719    1.46521
H      5.88861   19.88146    1.43561
H      7.99595   20.93568    1.93988
H      7.51315   19.89641    3.26317
H      8.88517   23.28796    2.18265
H      7.20166   23.88420    2.21985
H      8.37182   24.42818    3.46506
H      9.95768   21.51571    3.79908
H      9.60489   22.49696    5.25566
H      9.10985   20.77671    5.20104
H      5.19304   23.13717    2.50977
H      3.50192   23.58315    2.80491
C      3.62550   24.39449    5.77777
H      3.98928   24.95361    6.65251
H      2.85301   24.97835    5.25188
H      3.21331   23.43920    6.12823
C      5.57246   25.72942    4.16501
H      5.97673   26.26240    5.04022
H      6.34256   25.67581    3.38673
H      4.70092   26.28605    3.78279
H      5.48211   18.20118    5.53872
H      6.73422   18.88120    4.53141
C      4.31139   20.44251    7.12449
H      3.61811   20.91273    6.40555
H      4.03089   19.37744    7.21578
C      7.09665   19.63155    7.42889
H      6.70945   18.64338    7.72710
H      8.10690   19.51377    7.01172
H      7.15070   20.28874    8.30698
C      4.63789   20.54058    3.00935
H      3.81258   20.37669    2.29191
N      4.29629   21.08682    8.36477
H      4.53734   22.07812    8.32144
H      4.77319   20.60570    9.12142
N      2.87201   21.59063    4.34697
H      2.23489   22.36905    4.22906
H      2.41921   20.69802    4.18580
