29

O     -2.49214    2.15629    1.63187
Fe    -2.38992    2.18471    0.35343
N     -3.64342    3.85002    0.04224
O     -1.93534    1.69862   -2.01175
N     -0.30048    2.47744    0.43090
O     -3.65596    0.53620    0.30120
C     -4.89164    3.62785    0.79017
H     -5.56055    4.49687    0.66862
H     -5.39672    2.73174    0.40432
H     -4.65930    3.48928    1.85291
C     -2.89645    4.99276    0.58916
H     -1.96671    5.14019    0.02039
H     -3.49964    5.91424    0.51239
H     -2.66247    4.80367    1.64523
C     -3.92969    4.04374   -1.38425
H     -4.47151    3.17028   -1.77578
H     -4.57068    4.93155   -1.52530
H     -2.99529    4.20408   -1.94010
H     -1.31125    1.00478   -2.27108
H     -2.51814    1.81556   -2.77573
H      0.10539    2.27025    1.35095
H     -3.89358    0.33097    1.21953
C      0.53234    2.96825   -0.40485
H      1.59251    3.13791   -0.14881
H      0.19257    3.23337   -1.41727
C     -3.83413   -0.62470   -0.52300
H     -3.09494   -1.40299   -0.26846
H     -4.85561   -1.01571   -0.38830
H     -3.70541   -0.31126   -1.56597
