18

O      0.81591   -0.10383   -2.60305
O     -0.39988   -2.06769    0.32353
O      0.33220    2.08374    0.36902
N      2.16900   -0.38356    0.66814
O     -1.87800    0.34074   -0.54394
O     -0.33312    0.05252    1.71435
H     -0.62334   -2.48735    1.17440
H      0.25295    2.53944    1.22691
H      2.76418    0.35231    0.27384
H      2.48696   -1.25310    0.22767
H     -2.16696    1.17628   -0.94383
H     -2.43112   -0.34195   -0.95570
H      0.09815   -0.02801    2.57767
H     -1.27174    0.21562    1.89506
Fe     0.14282   -0.01938    0.11146
H      2.41384   -0.45436    1.65968
Br     1.14172    3.28369   -0.78875
Br     0.00298   -3.44660   -0.84815
