37

O      0.99334    0.42782    3.47286
N      0.09414   -2.03648    0.58222
C      0.99897   -1.98477   -0.58106
H      0.44390   -1.54082   -1.42220
H      1.29253   -3.00525   -0.88577
C     -1.26670   -2.49440    0.24036
H     -1.74122   -2.76014    1.19638
H     -1.23292   -3.40139   -0.38894
C      2.20924   -1.14298   -0.25049
H      2.80239   -1.62154    0.54325
H      2.87034   -1.05324   -1.12846
C     -2.05819   -1.41063   -0.44068
H     -3.10787   -1.72949   -0.55571
H     -1.66492   -1.15155   -1.44015
C      1.64094    1.23103   -0.76858
H      2.62533    1.55152   -1.15279
H      1.08137    0.82821   -1.62655
C     -2.55023    0.95946   -0.06308
H     -3.03244    1.44026    0.80001
H     -3.30767    0.76039   -0.83625
C     -1.42064    1.80458   -0.59865
H     -0.97224    1.33713   -1.48727
H     -1.78626    2.80281   -0.90392
C      0.91921    2.40139   -0.13929
H      1.50873    2.79758    0.70214
H      0.76928    3.22323   -0.86050
N     -0.36612    1.93889    0.41998
Fe    -0.09965   -0.00904    1.27303
N      1.77798    0.17371    0.23359
O     -1.99263   -0.27057    0.41906
H      2.40662    0.49306    0.97344
N      0.56002   -2.76873    1.68807
H      1.38958   -2.32009    2.07308
H      0.80439   -3.72530    1.40976
N     -0.87222    2.63749    1.52479
H     -1.09214    3.60910    1.27886
H     -0.17536    2.62788    2.27026
