24

O     -0.20911    0.68191   -2.80971
N      2.22485    0.30996   -0.95583
H      2.49528    0.31543   -1.94384
H      2.61976   -0.53880   -0.53990
Fe     0.10017    0.31119   -0.85845
H      2.70013    1.09407   -0.50262
P      0.27629    3.03788   -0.55478
H      1.11728    3.57301   -1.56651
H     -0.87528    3.83357   -0.80306
H      0.79082    3.72520    0.58078
P     -0.20068   -2.18094   -1.32815
H     -0.75509   -2.53322   -2.58381
H      0.94590   -3.01171   -1.28481
H     -1.05685   -2.89094   -0.44426
P     -2.16718    0.73017   -0.45802
H     -2.77842    1.56700   -1.43752
H     -2.94921   -0.44800   -0.56042
P      0.12183   -0.20273    1.48262
H      0.15294    0.83218    2.45464
H     -0.96240   -0.97507    1.97137
N     -2.47669    1.21713    1.12444
H     -2.14339    2.14985    1.36678
H     -3.42926    1.08601    1.47389
Br     1.83823   -1.42637    2.01656
