23

O     11.68159    6.96525   13.35370
Fe    13.39820    7.47347   11.50181
N     14.94092    7.80021    9.81304
N     12.31875    8.44879   10.06234
O     14.83215    8.88840   12.27985
N     14.11590    5.61358   11.12946
C     14.42620    8.91348    9.01081
H     14.87396    9.86602    9.35226
H     14.73284    8.83971    7.95201
C     12.95156    9.05110    9.12597
C     16.18421    8.08042   10.49898
H     16.61020    7.12639   10.86707
C     15.93276    8.89798   11.74695
C     14.98764    6.53390    9.08482
H     14.19998    6.51748    8.31216
H     15.94702    6.39771    8.55488
C     14.70683    5.38361   10.00757
H     12.43745    9.70737    8.40223
H     16.77809    9.46946   12.18793
H     13.90097    4.79857   11.71260
H     11.30693    8.61091   10.10365
Br    17.55736    8.87545    9.40497
Br    15.18118    3.71658    9.42076
