24

O     -0.17647    0.64279   -2.60380
N      2.19221    0.34908   -1.16174
H      2.46264    0.35455   -2.14975
H      2.58712   -0.49968   -0.74581
Fe     0.06753    0.35031   -1.06436
H      2.66749    1.13319   -0.70853
P      0.27629    3.03788   -0.55478
H      1.11728    3.57301   -1.56651
H     -0.87528    3.83357   -0.80306
H      0.79082    3.72520    0.58078
P     -0.20068   -2.18094   -1.32815
H     -0.75509   -2.53322   -2.58381
H      0.94590   -3.01171   -1.28481
H     -1.05685   -2.89094   -0.44426
P     -2.19982    0.76929   -0.66393
H     -2.81106    1.60612   -1.64343
H     -2.98185   -0.40888   -0.76633
P      0.08919   -0.16361    1.27671
H      0.12030    0.87130    2.24873
H     -0.99504   -0.93595    1.76546
N     -2.50933    1.25625    0.91853
H     -2.17603    2.18897    1.16087
H     -3.46190    1.12513    1.26798
Br     1.80559   -1.38725    1.81065
