33

O      6.92975   22.79737    7.16736
Fe     6.19098   21.63088    4.80373
N      5.94759   19.56087    5.34564
C      5.63966   18.67828    4.21235
C      4.47711   19.11353    3.33559
C      3.89610   21.65528    3.26492
C      4.38871   23.03090    2.83369
N      5.69193   23.29884    3.45486
C      5.82127   20.59443    1.70155
C      7.22830   20.56186    2.24079
N      7.53001   21.04431    3.42144
H      4.36390   18.30200    2.59835
H      2.81804   21.60100    3.03435
H      3.53159   19.07863    3.90521
H      5.75381   21.52512    1.11246
H      5.76631   19.79927    0.94151
H      4.42658   23.11228    1.73764
H      3.65973   23.78557    3.16892
H      5.42482   17.65861    4.57731
H      6.55326   18.59588    3.60677
C      4.54357   20.43223    2.54481
H      3.81001   20.27700    1.73720
H      6.82147   19.25871    5.78595
H      5.24635   19.46180    6.08469
H      8.52608   21.01610    3.64929
H      6.44108   23.37280    2.76693
H      5.69283   24.18323    3.96629
N      8.14346   20.07084    1.40353
H      9.13476   20.08120    1.62547
H      7.88850   19.72217    0.48593
N      4.08035   21.60614    4.71958
H      3.64660   22.41326    5.17653
H      3.62524   20.78457    5.11665
