17

O      0.00000    0.00000    1.99697
Fe     0.00000    0.00000   -0.39697
O     -0.02532   -2.04942   -0.43874
O      0.01885    2.04941   -0.44245
O     -2.09136   -0.00340   -0.58727
O      2.09172    0.00000   -0.58321
O      0.00000    0.00000   -2.44697
H      0.26040   -2.63210   -1.16435
H      0.04961   -2.57039    0.38141
H     -0.25655    2.63228   -1.17183
H     -0.05040    2.57471    0.37535
H     -2.58023    0.46315    0.11700
H     -2.52460   -0.87680   -0.62504
H      2.52747    0.87055   -0.64777
H      2.57839   -0.44571    0.13595
H     -0.77522    0.08407   -3.02759
H      0.77001   -0.10212   -3.03155
