36

O      7.23276   22.35709    6.27715
Fe     6.57615   22.01622    5.57467
N      5.80282   20.31277    6.34974
C      6.01572   19.31261    5.27378
C      5.03077   19.51333    4.12710
C      4.16018   22.03069    3.53293
C      4.88889   23.35699    3.74931
N      5.36140   23.58089    5.12824
C      6.15522   20.94094    2.25035
C      7.55389   20.93987    2.80545
O      7.71209   21.87469    3.90845
H      5.20891   18.64728    3.47012
H      3.63532   22.24912    2.58744
H      4.02531   19.33227    4.54024
H      5.99379   21.85420    1.65597
H      6.17557   20.12592    1.50645
H      8.26508   21.24662    2.02126
H      7.85629   19.94073    3.16142
H      5.75752   23.45710    3.08279
H      4.19125   24.17111    3.48659
H      7.05725   19.45898    4.93382
C      4.94024   20.71790    3.16372
H      4.20638   20.28946    2.46211
H      6.32079   20.04820    7.19451
H      4.81390   20.33030    6.62023
H      8.64982   22.09872    4.02322
H      5.85988   24.47334    5.20852
H      4.56711   23.65114    5.77340
C      3.06971   21.81632    4.56725
H      2.41686   22.70078    4.64191
H      2.42499   20.96665    4.29903
H      3.46659   21.61346    5.57587
C      5.91162   17.90612    5.83922
H      6.14976   17.16463    5.06233
H      6.61642   17.75642    6.67235
H      4.88895   17.70763    6.19864
