23

O      0.22400    0.00720   -1.80027
O     -0.34171   -2.14590   -0.36927
O      0.07797    2.13762   -0.25050
P      2.37285   -0.04455   -0.11324
N     -2.18222    0.34674   -0.97497
O     -0.50235   -0.00774    1.78455
H     -0.29125   -2.72988    0.40104
H     -0.04963   -2.67424   -1.12796
H      0.21245    2.33993    0.69112
H      3.25742    0.03584   -1.22003
H      2.83282   -1.24039    0.49363
H     -2.60308    1.00108   -0.30922
H     -2.36063    0.75532   -1.89774
H     -1.32007   -0.07150    2.31196
Fe    -0.04759   -0.01012   -0.81703
H      2.90941    0.94293    0.74205
H     -2.74802   -0.50700   -0.93773
N      0.63723   -0.17022    2.58810
H      0.63611    0.57358    3.29585
H      0.55295   -1.05986    3.09300
N      1.30087    2.56617   -0.86762
H      1.15845    3.56836   -1.05404
H      1.24400    2.10899   -1.78554
