52

O      7.71621   23.37666    6.29884
Fe     6.03308   21.88164    4.67155
N      5.68540   20.15175    5.79221
C      5.42955   18.97766    4.92546
C      4.35880   19.25426    3.88546
P      4.76892   20.87289    3.18793
C      3.37520   21.95483    2.79736
C      3.95188   23.34824    2.95929
N      4.69661   23.51292    4.23149
C      5.80548   20.58998    1.66469
C      7.22014   20.41386    2.20558
N      7.57622   21.39616    3.23976
C      8.81813   20.99457    3.91067
C      7.75174   22.72837    2.65179
H      4.33694   18.49393    3.08823
H      3.00373   21.78189    1.77388
H      2.54245   21.75200    3.48802
H      3.34798   19.29311    4.31959
H      5.73149   21.54051    1.11081
H      7.94973   20.45820    1.37670
H      7.30447   19.41197    2.65237
H      8.54867   22.71521    1.88714
H      6.81765   23.05503    2.17801
H      8.02687   23.43354    3.44677
H      9.66123   21.00920    3.19861
H      9.01684   21.68764    4.73786
H      8.71209   19.97431    4.29884
H      4.66038   23.55659    2.14359
H      3.16117   24.11709    2.89553
C      3.77159   23.51399    5.37147
H      4.34535   23.61882    6.30058
H      3.06596   24.35946    5.29350
H      3.19708   22.58204    5.39948
C      5.41014   24.80012    4.20742
H      6.00162   24.90210    5.12409
H      6.08364   24.84029    3.34462
H      4.68515   25.62809    4.13061
H      5.14157   18.13358    5.57584
H      6.38166   18.71371    4.44590
C      4.46818   20.40914    6.66171
H      3.66422   20.69463    5.96964
H      4.73898   21.29636    7.25352
C      6.82513   19.85697    6.67337
H      6.60161   18.96331    7.27757
H      7.72221   19.66894    6.07550
H      7.01202   20.71515    7.32831
N      5.29576   19.53061    0.87379
H      5.21101   19.74020   -0.11619
H      5.77045   18.64142    1.00028
N      4.11633   19.29346    7.43604
H      3.19183   18.91050    7.27818
H      4.32621   19.34776    8.42636
