52

O      7.77741   23.43102    6.35802
Fe     5.97188   21.82728    4.61237
N      5.62420   20.09739    5.73303
C      5.36835   18.92330    4.86628
C      4.29760   19.19990    3.82628
P      4.70772   20.81853    3.12875
C      3.31400   21.90047    2.73818
C      3.89068   23.29388    2.90011
N      4.63541   23.45856    4.17231
C      5.74428   20.53562    1.60551
C      7.15894   20.35950    2.14640
N      7.51502   21.34180    3.18058
C      8.75693   20.94021    3.85149
C      7.69054   22.67401    2.59261
H      4.27574   18.43957    3.02905
H      2.94253   21.72753    1.71470
H      2.48125   21.69764    3.42884
H      3.28678   19.23875    4.26041
H      5.67029   21.48615    1.05163
H      7.88853   20.40384    1.31752
H      7.24327   19.35761    2.59319
H      8.48747   22.66085    1.82796
H      6.75645   23.00067    2.11883
H      7.96567   23.37918    3.38759
H      9.60003   20.95484    3.13943
H      8.95564   21.63328    4.67868
H      8.65089   19.91995    4.23966
H      4.59918   23.50223    2.08441
H      3.09997   24.06273    2.83635
C      3.71039   23.45963    5.31229
H      4.28415   23.56446    6.24140
H      3.00476   24.30510    5.23432
H      3.13588   22.52768    5.34030
C      5.34894   24.74576    4.14824
H      5.94042   24.84774    5.06491
H      6.02244   24.78593    3.28544
H      4.62395   25.57373    4.07143
H      5.08037   18.07922    5.51666
H      6.32046   18.65935    4.38672
C      4.40698   20.35478    6.60253
H      3.60302   20.64027    5.91046
H      4.67778   21.24200    7.19434
C      6.76393   19.80261    6.61419
H      6.54041   18.90895    7.21839
H      7.66101   19.61458    6.01632
H      6.95082   20.66079    7.26913
N      5.23456   19.47625    0.81461
H      5.14981   19.68584   -0.17537
H      5.70925   18.58706    0.94110
N      4.05513   19.23910    7.37686
H      3.13063   18.85614    7.21900
H      4.26501   19.29340    8.36718
