23

O     12.17974    7.11273   12.81629
Fe    12.90005    7.32599   12.03922
N     14.44277    7.65273   10.35045
N     11.82060    8.30131   10.59975
O     14.33400    8.74092   12.81726
N     13.61775    5.46610   11.66687
C     13.92805    8.76600    9.54822
H     14.37581    9.71854    9.88967
H     14.23469    8.69223    8.48942
C     12.45341    8.90362    9.66338
C     15.68606    7.93294   11.03639
H     16.11205    6.97891   11.40448
C     15.43461    8.75050   12.28436
C     14.48949    6.38642    9.62223
H     13.70183    6.37000    8.84957
H     15.44887    6.25023    9.09229
C     14.20868    5.23613   10.54498
H     11.93930    9.55989    8.93964
H     16.27994    9.32198   12.72534
H     13.40282    4.65109   12.25001
H     10.80878    8.46343   10.64106
Br    17.05921    8.72797    9.94238
Br    14.68303    3.56910    9.95817
