54

O      6.97780   22.66536    6.21740
Fe     6.40745   22.35084    5.40608
P      6.21815   20.32213    6.47722
C      5.48739   19.02560    5.40372
C      4.46771   19.70164    4.50866
P      5.28586   21.19397    3.85645
C      4.03564   22.34286    3.22094
C      4.57436   23.74251    3.43225
N      5.22794   23.99221    4.74066
C      6.39137   20.65723    2.48935
C      7.82552   20.62014    2.98661
P      8.15476   22.19088    3.87208
C      9.76424   22.05313    4.67516
C      8.42717   23.39155    2.54051
H      4.10625   19.05668    3.69090
H      3.83397   22.16327    2.15247
H      3.10270   22.15257    3.76552
H      3.59039   20.04116    5.08347
H      6.27528   21.38869    1.67301
H      6.05238   19.68334    2.10007
H      8.54605   20.47044    2.16525
H      7.97540   19.80307    3.70992
H      9.23261   23.01675    1.88770
H      7.52043   23.54242    1.93922
H      8.74209   24.35353    2.97109
H     10.54305   21.81417    3.93342
H      9.98752   23.01815    5.15511
H      9.73772   21.28501    5.45759
H      5.34437   23.93546    2.67156
H      3.78030   24.49298    3.27358
C      4.27162   24.21995    5.84302
H      4.88160   24.52217    6.70248
H      3.62759   25.08092    5.58694
C      6.06041   25.21458    4.53918
H      6.76936   24.95963    3.74209
H      5.39070   25.99274    4.12723
H      5.05064   18.22014    6.01666
H      6.30403   18.58047    4.81272
C      5.20854   20.33925    7.97579
H      4.15647   20.54222    7.73438
H      5.28678   19.35563    8.46638
H      5.58350   21.11936    8.65136
C      7.83488   19.72025    6.99708
H      7.71328   18.78727    7.57085
H      8.46286   19.52335    6.11810
H      8.30926   20.49211    7.62013
C      6.80132   25.76211    5.72829
H      6.13264   26.15555    6.50669
H      7.46938   25.01288    6.17190
H      7.41040   26.61068    5.38016
C      3.44869   23.01260    6.21857
H      3.06112   23.12718    7.24122
H      2.58715   22.84720    5.55933
H      4.08333   22.10953    6.20021
