19

O      0.79975   -0.21622   -2.37770
O     -0.16701   -2.12244    0.33603
O      0.39590    2.06551    0.23866
P      2.60331   -0.36965    0.51620
P     -2.22553    0.28254   -0.92454
O     -0.19929    0.04417    1.85116
H     -0.74139   -2.53361    0.99940
H     -0.26972   -2.64528   -0.47461
H      0.54173    2.51473    1.08519
H      1.03394    2.45329   -0.38274
H      3.15378   -1.43669   -0.24323
H     -2.38730    1.24743   -1.95659
H      0.37968   -0.22737    2.57891
H     -1.02912    0.31306    2.27257
Fe     0.12747   -0.03573    0.08123
H      3.20080   -0.63984    1.78152
H     -3.31886    0.66526   -0.09332
Br    -2.95938   -1.53617   -1.85346
Br     3.71462    1.35769   -0.16794
