22

O      0.66547   -1.06123   -2.91071
N      2.79878   -0.75498   -0.41972
H      3.21989   -0.62371   -1.34293
H      3.07628   -1.69324   -0.11662
Fe     0.64325   -0.33438   -0.10441
H      3.26331   -0.09277    0.20717
P      0.73925    1.93305   -0.49798
H      0.11323    2.35850   -1.69956
H      0.11300    2.78578    0.44914
P     -0.57656   -2.28378    0.13929
H     -1.47229   -2.56136   -0.92268
H      0.29054   -3.40676    0.08335
H     -1.35236   -2.59214    1.28739
P     -1.98622    0.47071   -0.94972
H     -2.37131    0.04025   -2.24560
H     -2.94231   -0.23275   -0.16537
H     -2.60801    1.75281   -0.92983
P      0.54552    0.05488    2.15101
H      0.88784   -1.02964    3.00771
H     -0.73035    0.38147    2.68790
Br     1.81626    1.63582    2.91794
Br     2.72513    2.79382   -0.65133
