53

O      5.98295   23.01175    6.93130
Fe     6.29066   22.57079    5.78890
P      5.95320   20.41861    6.31687
C      5.71770   19.13514    5.04176
C      4.65055   19.31100    3.96481
C      4.14358   21.78249    3.92356
C      4.37730   23.18371    3.36120
P      5.00936   24.12735    4.78358
C      5.83868   20.77641    2.21708
C      7.22186   20.85933    2.83420
P      7.59535   22.20877    3.99781
C      9.20229   21.72791    4.69651
C      8.02814   23.61439    2.93449
H      4.74636   18.44689    3.28778
H      4.90507   21.75139    4.82679
H      3.66910   19.17711    4.44561
H      5.67482   21.64246    1.55661
H      5.86399   19.91673    1.52701
H      7.97133   20.97095    2.03128
H      7.48853   19.93168    3.35457
H      8.86055   23.32323    2.27405
H      7.17704   23.91947    2.31125
H      8.34720   24.46345    3.55646
H      9.93306   21.55098    3.89048
H      9.58027   22.53223    5.34706
H      9.08523   20.81198    5.29244
H      5.16842   23.17244    2.60117
H      3.47730   23.61842    2.89631
C      3.60088   24.42976    5.86917
H      3.96466   24.98888    6.74391
H      2.82839   25.01362    5.34328
H      3.18869   23.47447    6.21963
C      5.54784   25.76469    4.25641
H      5.95211   26.29767    5.13162
H      6.31794   25.71108    3.47813
H      4.67630   26.32132    3.87419
H      5.45749   18.23645    5.63012
H      6.70960   18.91647    4.62281
C      4.28677   20.47778    7.21589
H      3.59349   20.94800    6.49695
H      4.00627   19.41271    7.30718
C      7.07203   19.66682    7.52029
H      6.68483   18.67865    7.81850
H      8.08228   19.54904    7.10312
H      7.12608   20.32401    8.39838
C      4.61327   20.57585    3.10075
H      3.78796   20.41196    2.38331
N      4.27167   21.12209    8.45617
H      4.51272   22.11339    8.41284
H      4.74857   20.64097    9.21282
N      2.84739   21.62590    4.43837
H      2.21027   22.40432    4.32046
H      2.39459   20.73329    4.27720
