23

O      0.42143   -0.11661   -2.53662
O     -0.52170   -2.07818   -0.23040
O      0.08708    2.13902   -0.31843
P      2.05164   -0.28008    0.47358
N     -2.51798    0.36990   -0.31736
O     -0.64925    0.13074    1.73012
H     -0.44904   -2.37325    0.69366
H      0.25540    2.43204    0.59357
H      2.90776    0.66916   -0.13553
H      2.56595   -1.50938   -0.00694
H     -2.87070    1.25875    0.05084
H     -2.74913    0.38487   -1.31580
H      0.00201    0.06919    2.44469
H     -1.49736    0.26955    2.17863
Fe    -0.38435    0.05743   -0.09634
H      2.56697   -0.28183    1.79810
H     -3.11090   -0.36426    0.08209
N      1.16517    2.69351   -1.07327
H      0.81768    3.60816   -1.39149
H      1.18033    2.09519   -1.90674
N      0.34449   -2.95293   -0.95283
H      0.52376   -2.42326   -1.81327
H     -0.25295   -3.74360   -1.22961
