22

O      0.66415   -1.01818   -2.74448
N      2.79878   -0.75498   -0.41972
H      3.21989   -0.62371   -1.34293
H      3.07628   -1.69324   -0.11662
Fe     0.64457   -0.37743   -0.27064
H      3.26331   -0.09277    0.20717
P      0.74057    1.89000   -0.66421
H      0.11455    2.31545   -1.86579
H      0.11432    2.74273    0.28291
P     -0.57524   -2.32683   -0.02694
H     -1.47097   -2.60441   -1.08891
H      0.29186   -3.44981   -0.08288
H     -1.35104   -2.63519    1.12116
P     -1.98622    0.47071   -0.94972
H     -2.37131    0.04025   -2.24560
H     -2.94231   -0.23275   -0.16537
H     -2.60801    1.75281   -0.92983
P      0.54684    0.01183    1.98478
H      0.88916   -1.07269    2.84148
H     -0.72903    0.33842    2.52167
Br     1.81758    1.59277    2.75171
Br     2.72645    2.75077   -0.81756
