54

O      7.43186   22.91575    6.86329
Fe     5.95339   22.10045    4.76019
P      5.76409   20.07174    5.83133
C      5.03333   18.77521    4.75783
C      4.01365   19.45125    3.86277
P      4.83180   20.94358    3.21056
C      3.58158   22.09247    2.57505
C      4.12030   23.49212    2.78636
N      4.77388   23.74182    4.09477
C      5.93731   20.40684    1.84346
C      7.37146   20.36975    2.34072
P      7.70070   21.94049    3.22619
C      9.31018   21.80274    4.02927
C      7.97311   23.14116    1.89462
H      3.65219   18.80629    3.04501
H      3.37991   21.91288    1.50658
H      2.64864   21.90218    3.11963
H      3.13633   19.79077    4.43758
H      5.82122   21.13830    1.02712
H      5.59832   19.43295    1.45418
H      8.09199   20.22005    1.51936
H      7.52134   19.55268    3.06403
H      8.77855   22.76636    1.24181
H      7.06637   23.29203    1.29333
H      8.28803   24.10314    2.32520
H     10.08899   21.56378    3.28753
H      9.53346   22.76776    4.50922
H      9.28366   21.03462    4.81170
H      4.89031   23.68507    2.02567
H      3.32624   24.24259    2.62769
C      3.81756   23.96956    5.19713
H      4.42754   24.27178    6.05659
H      3.17353   24.83053    4.94105
C      5.60635   24.96419    3.89329
H      6.31530   24.70924    3.09620
H      4.93664   25.74235    3.48134
H      4.59658   17.96975    5.37077
H      5.84997   18.33008    4.16683
C      4.75448   20.08886    7.32990
H      3.70241   20.29183    7.08849
H      4.83272   19.10524    7.82049
H      5.12944   20.86897    8.00547
C      7.38082   19.46986    6.35119
H      7.25922   18.53688    6.92496
H      8.00880   19.27296    5.47221
H      7.85520   20.24172    6.97424
C      6.34726   25.51172    5.08240
H      5.67858   25.90516    5.86080
H      7.01532   24.76249    5.52601
H      6.95634   26.36029    4.73427
C      2.99463   22.76221    5.57268
H      2.60706   22.87679    6.59533
H      2.13309   22.59681    4.91344
H      3.62927   21.85914    5.55432
