18

O      0.82563   -0.10505   -2.64224
O     -0.40960   -2.06647    0.36272
O      0.32248    2.08496    0.40821
N      2.15928   -0.38234    0.70733
O     -1.87800    0.34074   -0.54394
O     -0.33312    0.05252    1.71435
H     -0.63306   -2.48613    1.21359
H      0.24323    2.54066    1.26610
H      2.75446    0.35353    0.31303
H      2.47724   -1.25188    0.26686
H     -2.16696    1.17628   -0.94383
H     -2.43112   -0.34195   -0.95570
H      0.09815   -0.02801    2.57767
H     -1.27174    0.21562    1.89506
Fe     0.13310   -0.01816    0.15065
H      2.40412   -0.45314    1.69887
Br     1.13200    3.28491   -0.74956
Br    -0.00674   -3.44538   -0.80896
