23

O      0.21919   -0.07293   -1.92416
O     -0.52170   -2.07818   -0.23040
O      0.08708    2.13902   -0.31843
P      2.25388   -0.32376   -0.13888
N     -2.31574    0.32622   -0.92982
O     -0.64925    0.13074    1.73012
H     -0.44904   -2.37325    0.69366
H      0.25540    2.43204    0.59357
H      3.11000    0.62548   -0.74799
H      2.76819   -1.55306   -0.61940
H     -2.66846    1.21507   -0.56162
H     -2.54689    0.34119   -1.92826
H      0.00201    0.06919    2.44469
H     -1.49736    0.26955    2.17863
Fe    -0.18211    0.01375   -0.70880
H      2.76921   -0.32551    1.18564
H     -2.90866   -0.40794   -0.53037
N      1.16517    2.69351   -1.07327
H      0.81768    3.60816   -1.39149
H      1.18033    2.09519   -1.90674
N      0.34449   -2.95293   -0.95283
H      0.52376   -2.42326   -1.81327
H     -0.25295   -3.74360   -1.22961
