29

O     -2.51146    2.15092    1.87346
Fe    -2.37060    2.19008    0.11184
N     -3.62410    3.85539   -0.19935
O     -1.93534    1.69862   -2.01175
N     -0.28116    2.48281    0.18931
O     -3.63664    0.54157    0.05961
C     -4.87232    3.63322    0.54858
H     -5.54123    4.50224    0.42703
H     -5.37740    2.73711    0.16273
H     -4.63998    3.49465    1.61132
C     -2.87713    4.99813    0.34757
H     -1.94739    5.14556   -0.22120
H     -3.48032    5.91961    0.27080
H     -2.64315    4.80904    1.40364
C     -3.91037    4.04911   -1.62584
H     -4.45219    3.17565   -2.01737
H     -4.55136    4.93692   -1.76689
H     -2.97597    4.20945   -2.18169
H     -1.31125    1.00478   -2.27108
H     -2.51814    1.81556   -2.77573
H      0.12471    2.27562    1.10936
H     -3.87426    0.33634    0.97794
C      0.55166    2.97362   -0.64644
H      1.61183    3.14328   -0.39040
H      0.21189    3.23874   -1.65886
C     -3.81481   -0.61933   -0.76459
H     -3.07562   -1.39762   -0.51005
H     -4.83629   -1.01034   -0.62989
H     -3.68609   -0.30589   -1.80756
