22

O      0.66284   -0.97512   -2.57826
N      2.79878   -0.75498   -0.41972
H      3.21989   -0.62371   -1.34293
H      3.07628   -1.69324   -0.11662
Fe     0.64588   -0.42049   -0.43686
H      3.26331   -0.09277    0.20717
P      0.74188    1.84694   -0.83043
H      0.11586    2.27239   -2.03201
H      0.11563    2.69967    0.11669
P     -0.57393   -2.36989   -0.19316
H     -1.46966   -2.64747   -1.25513
H      0.29317   -3.49287   -0.24910
H     -1.34973   -2.67825    0.95494
P     -1.98622    0.47071   -0.94972
H     -2.37131    0.04025   -2.24560
H     -2.94231   -0.23275   -0.16537
H     -2.60801    1.75281   -0.92983
P      0.54815   -0.03123    1.81856
H      0.89047   -1.11575    2.67526
H     -0.72772    0.29536    2.35545
Br     1.81889    1.54971    2.58549
Br     2.72776    2.70771   -0.98378
