37

O      0.87829    0.38184    3.24130
N      0.20919   -1.99050    0.81378
C      1.11402   -1.93879   -0.34950
H      0.55895   -1.49484   -1.19064
H      1.40758   -2.95927   -0.65421
C     -1.15165   -2.44842    0.47192
H     -1.62617   -2.71416    1.42794
H     -1.11787   -3.35541   -0.15738
C      2.32429   -1.09700   -0.01893
H      2.91744   -1.57556    0.77481
H      2.98539   -1.00726   -0.89690
C     -1.94314   -1.36465   -0.20912
H     -2.99282   -1.68351   -0.32415
H     -1.54987   -1.10557   -1.20859
C      1.75599    1.27701   -0.53702
H      2.74038    1.59750   -0.92123
H      1.19642    0.87419   -1.39499
C     -2.43518    1.00544    0.16848
H     -2.91739    1.48624    1.03157
H     -3.19262    0.80637   -0.60469
C     -1.30559    1.85056   -0.36709
H     -0.85719    1.38311   -1.25571
H     -1.67121    2.84879   -0.67236
C      1.03426    2.44737    0.09227
H      1.62378    2.84356    0.93370
H      0.88433    3.26921   -0.62894
N     -0.25107    1.98487    0.65154
Fe     0.01540    0.03694    1.50459
N      1.89303    0.21969    0.46515
O     -1.87758   -0.22459    0.65062
H      2.52167    0.53904    1.20500
N      0.67507   -2.72275    1.91963
H      1.50463   -2.27411    2.30464
H      0.91944   -3.67932    1.64132
N     -0.75717    2.68347    1.75635
H     -0.97709    3.65508    1.51042
H     -0.06031    2.67386    2.50182
