17

O      0.00000    0.00000    2.22929
Fe     0.00000    0.00000   -0.62929
O     -0.02532   -2.04942   -0.67106
O      0.01885    2.04941   -0.67478
O     -2.09136   -0.00340   -0.81959
O      2.09172    0.00000   -0.81554
O      0.00000    0.00000   -2.67929
H      0.26040   -2.63210   -1.39668
H      0.04961   -2.57039    0.14908
H     -0.25655    2.63228   -1.40416
H     -0.05040    2.57471    0.14303
H     -2.58023    0.46315   -0.11532
H     -2.52460   -0.87680   -0.85736
H      2.52747    0.87055   -0.88009
H      2.57839   -0.44571   -0.09637
H     -0.77522    0.08407   -3.25992
H      0.77001   -0.10212   -3.26388
