22

O      0.45061   -0.06578   -2.05165
O     -0.13176   -2.17943   -0.07121
O      0.10773    2.16127   -0.26153
P      2.36797   -0.30567    0.08275
O     -2.04382   -0.06306   -0.70011
O     -0.64106    0.01076    1.68341
H     -0.22828   -2.85443   -0.76923
H      0.53141    2.57598    0.50515
H      0.36283    2.70154   -1.02613
H      3.27808    0.74040   -0.21693
H      3.01035   -1.40019   -0.54710
H     -2.61963    0.32235   -1.37524
H     -2.32486    0.26761    0.25494
H     -0.79213   -1.01458    1.66698
Fe    -0.00359    0.03337   -0.66274
H      2.67642   -0.54883    1.44665
N     -0.93253   -2.47185    1.03290
H     -1.88513   -2.68965    0.71559
H     -0.54582   -3.29455    1.51254
N     -1.94509    0.54948    1.82075
H     -2.37163    0.13016    2.65796
H     -1.79979    1.53586    2.06131
