54

O      7.06640   22.71421    6.34342
Fe     6.31885   22.30199    5.28006
P      6.12955   20.27328    6.35120
C      5.39879   18.97675    5.27770
C      4.37911   19.65279    4.38264
P      5.19726   21.14512    3.73043
C      3.94704   22.29401    3.09492
C      4.48576   23.69366    3.30623
N      5.13934   23.94336    4.61464
C      6.30277   20.60838    2.36333
C      7.73692   20.57129    2.86059
P      8.06616   22.14203    3.74606
C      9.67564   22.00428    4.54914
C      8.33857   23.34270    2.41449
H      4.01765   19.00783    3.56488
H      3.74537   22.11442    2.02645
H      3.01410   22.10372    3.63950
H      3.50179   19.99231    4.95745
H      6.18668   21.33984    1.54699
H      5.96378   19.63449    1.97405
H      8.45745   20.42159    2.03923
H      7.88680   19.75422    3.58390
H      9.14401   22.96790    1.76168
H      7.43183   23.49357    1.81320
H      8.65349   24.30468    2.84507
H     10.45445   21.76532    3.80740
H      9.89892   22.96930    5.02909
H      9.64912   21.23616    5.33157
H      5.25577   23.88661    2.54554
H      3.69170   24.44413    3.14756
C      4.18302   24.17110    5.71700
H      4.79300   24.47332    6.57646
H      3.53899   25.03207    5.46092
C      5.97181   25.16573    4.41316
H      6.68076   24.91078    3.61607
H      5.30210   25.94389    4.00121
H      4.96204   18.17129    5.89064
H      6.21543   18.53162    4.68670
C      5.11994   20.29040    7.84977
H      4.06787   20.49337    7.60836
H      5.19818   19.30678    8.34036
H      5.49490   21.07051    8.52534
C      7.74628   19.67140    6.87106
H      7.62468   18.73842    7.44483
H      8.37426   19.47450    5.99208
H      8.22066   20.44326    7.49411
C      6.71272   25.71326    5.60227
H      6.04404   26.10670    6.38067
H      7.38078   24.96403    6.04588
H      7.32180   26.56183    5.25414
C      3.36009   22.96375    6.09255
H      2.97252   23.07833    7.11520
H      2.49855   22.79835    5.43331
H      3.99473   22.06068    6.07419
