18

O      0.67497   -0.08615   -2.03467
O     -0.25894   -2.08537   -0.24485
O      0.47314    2.06606   -0.19936
N      2.30994   -0.40124    0.09976
O     -1.87800    0.34074   -0.54394
O     -0.33312    0.05252    1.71435
H     -0.48240   -2.50503    0.60602
H      0.39389    2.52176    0.65853
H      2.90512    0.33463   -0.29454
H      2.62790   -1.27078   -0.34071
H     -2.16696    1.17628   -0.94383
H     -2.43112   -0.34195   -0.95570
H      0.09815   -0.02801    2.57767
H     -1.27174    0.21562    1.89506
Fe     0.28376   -0.03706   -0.45692
H      2.55478   -0.47204    1.09130
Br     1.28266    3.26601   -1.35713
Br     0.14392   -3.46428   -1.41653
