17

O      0.00000    0.00000    1.92626
Fe     0.00000    0.00000   -0.32626
O     -0.02532   -2.04942   -0.36803
O      0.01885    2.04941   -0.37175
O     -2.09136   -0.00340   -0.51656
O      2.09172    0.00000   -0.51251
O      0.00000    0.00000   -2.37626
H      0.26040   -2.63210   -1.09365
H      0.04961   -2.57039    0.45211
H     -0.25655    2.63228   -1.10113
H     -0.05040    2.57471    0.44606
H     -2.58023    0.46315    0.18771
H     -2.52460   -0.87680   -0.55433
H      2.52747    0.87055   -0.57706
H      2.57839   -0.44571    0.20666
H     -0.77522    0.08407   -2.95689
H      0.77001   -0.10212   -2.96085
