22

O      0.66462   -1.03337   -2.80315
N      2.79878   -0.75498   -0.41972
H      3.21989   -0.62371   -1.34293
H      3.07628   -1.69324   -0.11662
Fe     0.64410   -0.36224   -0.21197
H      3.26331   -0.09277    0.20717
P      0.74010    1.90519   -0.60554
H      0.11408    2.33064   -1.80712
H      0.11385    2.75792    0.34158
P     -0.57571   -2.31164    0.03173
H     -1.47144   -2.58922   -1.03024
H      0.29139   -3.43462   -0.02421
H     -1.35151   -2.62000    1.17983
P     -1.98622    0.47071   -0.94972
H     -2.37131    0.04025   -2.24560
H     -2.94231   -0.23275   -0.16537
H     -2.60801    1.75281   -0.92983
P      0.54637    0.02702    2.04345
H      0.88869   -1.05750    2.90015
H     -0.72950    0.35361    2.58034
Br     1.81711    1.60796    2.81038
Br     2.72598    2.76596   -0.75889
