22

O      0.35282   -0.22269   -2.02615
O     -0.66709   -2.13712   -0.38183
O     -0.14241    1.83812   -0.25688
P      2.26355   -0.59701   -0.18593
O     -2.35339    0.11938   -0.75358
O     -0.76755   -0.13725    1.74867
H     -0.72924   -2.43266    0.54358
H     -0.62029    1.90124    0.65640
H      0.25851    2.67182   -0.53659
H      3.18646    0.28439   -0.80158
H      2.70015   -1.86147   -0.65057
H     -2.71514    0.87660   -1.24004
H     -2.86977   -0.64808   -1.04523
H      0.06134   -0.08743    2.25404
Fe    -0.09999   -0.09664   -0.83253
H      2.75841   -0.61456    1.14642
N      0.19404   -3.08776   -1.01502
H     -0.43151   -3.85283   -1.30283
H      0.44633   -2.60182   -1.88377
N     -1.42320    1.10119    2.01296
H     -2.39675    0.90660    1.75224
H     -1.43649    1.24044    3.03273
