22

O      0.38483   -0.05142   -1.85050
O     -0.13176   -2.17943   -0.07121
O      0.10773    2.16127   -0.26153
P      2.43375   -0.32003   -0.11840
O     -1.97804   -0.07742   -0.90126
O     -0.64106    0.01076    1.68341
H     -0.22828   -2.85443   -0.76923
H      0.53141    2.57598    0.50515
H      0.36283    2.70154   -1.02613
H      3.34386    0.72604   -0.41808
H      3.07613   -1.41455   -0.74825
H     -2.55385    0.30799   -1.57639
H     -2.25908    0.25325    0.05379
H     -0.79213   -1.01458    1.66698
Fe     0.06219    0.01901   -0.86389
H      2.74220   -0.56319    1.24550
N     -0.93253   -2.47185    1.03290
H     -1.88513   -2.68965    0.71559
H     -0.54582   -3.29455    1.51254
N     -1.94509    0.54948    1.82075
H     -2.37163    0.13016    2.65796
H     -1.79979    1.53586    2.06131
