29

O     -2.50905    2.15159    1.84326
Fe    -2.37301    2.18941    0.14204
N     -3.62651    3.85472   -0.16915
O     -1.93534    1.69862   -2.01175
N     -0.28357    2.48214    0.21951
O     -3.63905    0.54090    0.08981
C     -4.87473    3.63255    0.57878
H     -5.54364    4.50157    0.45723
H     -5.37981    2.73644    0.19293
H     -4.64239    3.49398    1.64152
C     -2.87954    4.99746    0.37777
H     -1.94980    5.14489   -0.19100
H     -3.48273    5.91894    0.30100
H     -2.64556    4.80837    1.43384
C     -3.91278    4.04844   -1.59564
H     -4.45460    3.17498   -1.98717
H     -4.55377    4.93625   -1.73669
H     -2.97838    4.20878   -2.15149
H     -1.31125    1.00478   -2.27108
H     -2.51814    1.81556   -2.77573
H      0.12230    2.27495    1.13956
H     -3.87667    0.33567    1.00814
C      0.54925    2.97295   -0.61624
H      1.60942    3.14261   -0.36020
H      0.20948    3.23807   -1.62866
C     -3.81722   -0.62000   -0.73439
H     -3.07803   -1.39829   -0.47985
H     -4.83870   -1.01101   -0.59969
H     -3.68850   -0.30656   -1.77736
