53

O      5.94848   23.06113    7.05925
Fe     6.32513   22.52141    5.66095
P      5.98767   20.36923    6.18892
C      5.75217   19.08576    4.91381
C      4.68502   19.26162    3.83686
C      4.17805   21.73311    3.79561
C      4.41177   23.13433    3.23325
P      5.04383   24.07797    4.65563
C      5.87315   20.72703    2.08913
C      7.25633   20.80995    2.70625
P      7.62982   22.15939    3.86986
C      9.23676   21.67853    4.56856
C      8.06261   23.56501    2.80654
H      4.78083   18.39751    3.15983
H      4.93954   21.70201    4.69884
H      3.70357   19.12773    4.31766
H      5.70929   21.59308    1.42866
H      5.89846   19.86735    1.39906
H      8.00580   20.92157    1.90333
H      7.52300   19.88230    3.22662
H      8.89502   23.27385    2.14610
H      7.21151   23.87009    2.18330
H      8.38167   24.41407    3.42851
H      9.96753   21.50160    3.76253
H      9.61474   22.48285    5.21911
H      9.11970   20.76260    5.16449
H      5.20289   23.12306    2.47322
H      3.51177   23.56904    2.76836
C      3.63535   24.38038    5.74122
H      3.99913   24.93950    6.61596
H      2.86286   24.96424    5.21533
H      3.22316   23.42509    6.09168
C      5.58231   25.71531    4.12846
H      5.98658   26.24829    5.00367
H      6.35241   25.66170    3.35018
H      4.71077   26.27194    3.74624
H      5.49196   18.18707    5.50217
H      6.74407   18.86709    4.49486
C      4.32124   20.42840    7.08794
H      3.62796   20.89862    6.36900
H      4.04074   19.36333    7.17923
C      7.10650   19.61744    7.39234
H      6.71930   18.62927    7.69055
H      8.11675   19.49966    6.97517
H      7.16055   20.27463    8.27043
C      4.64774   20.52647    2.97280
H      3.82243   20.36258    2.25536
N      4.30614   21.07271    8.32822
H      4.54719   22.06401    8.28489
H      4.78304   20.59159    9.08487
N      2.88186   21.57652    4.31042
H      2.24474   22.35494    4.19251
H      2.42906   20.68391    4.14925
