17

O      0.00000    0.00000    1.91616
Fe     0.00000    0.00000   -0.31616
O     -0.02532   -2.04942   -0.35793
O      0.01885    2.04941   -0.36165
O     -2.09136   -0.00340   -0.50646
O      2.09172    0.00000   -0.50241
O      0.00000    0.00000   -2.36616
H      0.26040   -2.63210   -1.08355
H      0.04961   -2.57039    0.46221
H     -0.25655    2.63228   -1.09102
H     -0.05040    2.57471    0.45616
H     -2.58023    0.46315    0.19781
H     -2.52460   -0.87680   -0.54423
H      2.52747    0.87055   -0.56696
H      2.57839   -0.44571    0.21676
H     -0.77522    0.08407   -2.94678
H      0.77001   -0.10212   -2.95074
