12

H 0.000000 0.000000 0.000000
H 0.000000 0.000000 1.812121
H 0.000000 0.000000 3.624242
H 0.000000 0.000000 5.436364
H 0.000000 0.000000 7.248485
H 0.000000 0.000000 9.060606
H 0.000000 0.000000 10.872727
H 0.000000 0.000000 12.684848
H 0.000000 0.000000 14.496970
H 0.000000 0.000000 16.309091
H 0.000000 0.000000 18.121212
H 0.000000 0.000000 19.933333
