36

O      7.28477   22.38409    6.33279
Fe     6.52414   21.98922    5.51903
N      5.75081   20.28577    6.29410
C      5.96371   19.28561    5.21814
C      4.97876   19.48633    4.07146
C      4.10817   22.00369    3.47729
C      4.83688   23.32999    3.69367
N      5.30939   23.55389    5.07260
C      6.10321   20.91394    2.19471
C      7.50188   20.91287    2.74981
O      7.66008   21.84769    3.85281
H      5.15690   18.62028    3.41448
H      3.58331   22.22212    2.53180
H      3.97330   19.30527    4.48460
H      5.94178   21.82720    1.60033
H      6.12356   20.09892    1.45081
H      8.21307   21.21962    1.96562
H      7.80428   19.91373    3.10578
H      5.70551   23.43010    3.02715
H      4.13924   24.14411    3.43095
H      7.00524   19.43198    4.87818
C      4.88823   20.69090    3.10808
H      4.15437   20.26246    2.40647
H      6.26878   20.02120    7.13887
H      4.76189   20.30330    6.56459
H      8.59781   22.07172    3.96758
H      5.80787   24.44634    5.15288
H      4.51510   23.62414    5.71776
C      3.01770   21.78932    4.51161
H      2.36485   22.67378    4.58627
H      2.37298   20.93965    4.24339
H      3.41458   21.58646    5.52023
C      5.85961   17.87912    5.78358
H      6.09775   17.13763    5.00669
H      6.56441   17.72942    6.61671
H      4.83694   17.68063    6.14300
