54

O      7.47616   22.94018    6.92631
Fe     5.90909   22.07602    4.69717
P      5.71979   20.04731    5.76831
C      4.98903   18.75078    4.69481
C      3.96935   19.42682    3.79975
P      4.78750   20.91915    3.14754
C      3.53728   22.06804    2.51203
C      4.07600   23.46769    2.72334
N      4.72958   23.71739    4.03175
C      5.89301   20.38241    1.78044
C      7.32716   20.34532    2.27770
P      7.65640   21.91606    3.16317
C      9.26588   21.77831    3.96625
C      7.92881   23.11673    1.83160
H      3.60789   18.78186    2.98199
H      3.33561   21.88845    1.44356
H      2.60434   21.87775    3.05661
H      3.09203   19.76634    4.37456
H      5.77692   21.11387    0.96410
H      5.55402   19.40852    1.39116
H      8.04769   20.19562    1.45634
H      7.47704   19.52825    3.00101
H      8.73425   22.74193    1.17879
H      7.02207   23.26760    1.23031
H      8.24373   24.07871    2.26218
H     10.04469   21.53935    3.22451
H      9.48916   22.74333    4.44620
H      9.23936   21.01019    4.74868
H      4.84601   23.66064    1.96265
H      3.28194   24.21816    2.56467
C      3.77326   23.94513    5.13411
H      4.38324   24.24735    5.99357
H      3.12923   24.80610    4.87803
C      5.56205   24.93976    3.83027
H      6.27100   24.68481    3.03318
H      4.89234   25.71792    3.41832
H      4.55228   17.94532    5.30775
H      5.80567   18.30565    4.10381
C      4.71018   20.06443    7.26688
H      3.65811   20.26740    7.02547
H      4.78842   19.08081    7.75747
H      5.08514   20.84454    7.94245
C      7.33652   19.44543    6.28817
H      7.21492   18.51245    6.86194
H      7.96450   19.24853    5.40919
H      7.81090   20.21729    6.91122
C      6.30296   25.48729    5.01938
H      5.63428   25.88073    5.79778
H      6.97102   24.73806    5.46299
H      6.91204   26.33586    4.67125
C      2.95033   22.73778    5.50966
H      2.56276   22.85236    6.53231
H      2.08879   22.57238    4.85042
H      3.58497   21.83471    5.49130
