17

O      0.00000    0.00000    1.70404
Fe     0.00000    0.00000   -0.10404
O     -0.02532   -2.04942   -0.14581
O      0.01885    2.04941   -0.14952
O     -2.09136   -0.00340   -0.29434
O      2.09172    0.00000   -0.29028
O      0.00000    0.00000   -2.15404
H      0.26040   -2.63210   -0.87143
H      0.04961   -2.57039    0.67434
H     -0.25655    2.63228   -0.87890
H     -0.05040    2.57471    0.66828
H     -2.58023    0.46315    0.40993
H     -2.52460   -0.87680   -0.33211
H      2.52747    0.87055   -0.35484
H      2.57839   -0.44571    0.42888
H     -0.77522    0.08407   -2.73466
H      0.77001   -0.10212   -2.73862
