37

O      1.03759    0.44551    3.56193
N      0.04989   -2.05417    0.49315
C      0.95472   -2.00246   -0.67013
H      0.39965   -1.55851   -1.51127
H      1.24828   -3.02294   -0.97484
C     -1.31095   -2.51209    0.15129
H     -1.78547   -2.77783    1.10731
H     -1.27717   -3.41908   -0.47801
C      2.16499   -1.16067   -0.33956
H      2.75814   -1.63923    0.45418
H      2.82609   -1.07093   -1.21753
C     -2.10244   -1.42832   -0.52975
H     -3.15212   -1.74718   -0.64478
H     -1.70917   -1.16924   -1.52922
C      1.59669    1.21334   -0.85765
H      2.58108    1.53383   -1.24186
H      1.03712    0.81052   -1.71562
C     -2.59448    0.94177   -0.15215
H     -3.07669    1.42257    0.71094
H     -3.35192    0.74270   -0.92532
C     -1.46489    1.78689   -0.68772
H     -1.01649    1.31944   -1.57634
H     -1.83051    2.78512   -0.99299
C      0.87496    2.38370   -0.22836
H      1.46448    2.77989    0.61307
H      0.72503    3.20554   -0.94957
N     -0.41037    1.92120    0.33091
Fe    -0.14390   -0.02673    1.18396
N      1.73373    0.15602    0.14452
O     -2.03688   -0.28826    0.32999
H      2.36237    0.47537    0.88437
N      0.51577   -2.78642    1.59900
H      1.34533   -2.33778    1.98401
H      0.76014   -3.74299    1.32069
N     -0.91647    2.61980    1.43572
H     -1.13639    3.59141    1.18979
H     -0.21961    2.61019    2.18119
