19

O      0.77052   -0.20837   -2.27079
O     -0.13778   -2.13029    0.22912
O      0.42513    2.05766    0.13175
P      2.63254   -0.37750    0.40929
P     -2.22553    0.28254   -0.92454
O     -0.19929    0.04417    1.85116
H     -0.71216   -2.54146    0.89249
H     -0.24049   -2.65313   -0.58152
H      0.57096    2.50688    0.97828
H      1.06317    2.44544   -0.48965
H      3.18301   -1.44454   -0.35014
H     -2.38730    1.24743   -1.95659
H      0.37968   -0.22737    2.57891
H     -1.02912    0.31306    2.27257
Fe     0.15670   -0.04358   -0.02568
H      3.23003   -0.64769    1.67461
H     -3.31886    0.66526   -0.09332
Br    -2.95938   -1.53617   -1.85346
Br     3.74385    1.34984   -0.27485
