24

O     -0.21067    0.68377   -2.81952
N      2.22641    0.30810   -0.94602
H      2.49684    0.31357   -1.93403
H      2.62132   -0.54066   -0.53009
Fe     0.10173    0.30933   -0.84864
H      2.70169    1.09221   -0.49281
P      0.27629    3.03788   -0.55478
H      1.11728    3.57301   -1.56651
H     -0.87528    3.83357   -0.80306
H      0.79082    3.72520    0.58078
P     -0.20068   -2.18094   -1.32815
H     -0.75509   -2.53322   -2.58381
H      0.94590   -3.01171   -1.28481
H     -1.05685   -2.89094   -0.44426
P     -2.16562    0.72831   -0.44821
H     -2.77686    1.56514   -1.42771
H     -2.94765   -0.44986   -0.55061
P      0.12339   -0.20459    1.49243
H      0.15450    0.83032    2.46445
H     -0.96084   -0.97693    1.98118
N     -2.47513    1.21527    1.13425
H     -2.14183    2.14799    1.37659
H     -3.42770    1.08415    1.48370
Br     1.83979   -1.42823    2.02637
