29

O     11.98744    7.20517   13.08737
Fe    13.30472    7.50259   11.73793
N     14.77313    7.76618   10.01297
N     12.16624    8.28446   10.21230
O     14.85634    8.59490   12.58657
N     13.87217    5.57239   11.30775
C     14.25648    8.88446    9.19403
H     14.60493    8.78253    8.14833
C     12.75929    8.83603    9.22154
C     16.06773    7.99337   10.64142
H     16.53314    7.01668   10.86949
H     16.79107    8.51424    9.99147
C     15.94080    8.65842   11.99008
C     14.73728    6.49993    9.27849
H     13.94744    6.53308    8.50470
H     15.67327    6.30409    8.72211
C     14.39437    5.35129   10.16068
H     12.20379    9.34622    8.41652
H     14.56864    4.32938    9.78123
H     13.61348    4.74716   11.85836
H     11.14249    8.33807   10.22114
C     14.65078   10.27336    9.68379
H     14.31875   10.44830   10.71675
H     15.73420   10.43390    9.59888
H     14.17296   11.03311    9.04628
C     17.11400    9.32364   12.57639
H     16.99475    9.46542   13.65910
H     18.04577    8.78603   12.33557
H     17.20529   10.31925   12.09963
