17

O      0.00000    0.00000    2.26970
Fe     0.00000    0.00000   -0.66970
O     -0.02532   -2.04942   -0.71146
O      0.01885    2.04941   -0.71518
O     -2.09136   -0.00340   -0.85999
O      2.09172    0.00000   -0.85594
O      0.00000    0.00000   -2.71970
H      0.26040   -2.63210   -1.43708
H      0.04961   -2.57039    0.10868
H     -0.25655    2.63228   -1.44456
H     -0.05040    2.57471    0.10262
H     -2.58023    0.46315   -0.15573
H     -2.52460   -0.87680   -0.89777
H      2.52747    0.87055   -0.92050
H      2.57839   -0.44571   -0.13678
H     -0.77522    0.08407   -3.30032
H      0.77001   -0.10212   -3.30428
