12

H 0.000000 0.000000 0.000000
H 0.000000 0.000000 1.981818
H 0.000000 0.000000 3.963636
H 0.000000 0.000000 5.945455
H 0.000000 0.000000 7.927273
H 0.000000 0.000000 9.909091
H 0.000000 0.000000 11.890909
H 0.000000 0.000000 13.872727
H 0.000000 0.000000 15.854545
H 0.000000 0.000000 17.836364
H 0.000000 0.000000 19.818182
H 0.000000 0.000000 21.800000
