54

O      7.33772   22.86384    6.72939
Fe     6.04753   22.15236    4.89409
P      5.85823   20.12365    5.96523
C      5.12747   18.82712    4.89173
C      4.10779   19.50316    3.99667
P      4.92594   20.99549    3.34446
C      3.67572   22.14438    2.70895
C      4.21444   23.54403    2.92026
N      4.86802   23.79373    4.22867
C      6.03145   20.45875    1.97736
C      7.46560   20.42166    2.47462
P      7.79484   21.99240    3.36009
C      9.40432   21.85465    4.16317
C      8.06725   23.19307    2.02852
H      3.74633   18.85820    3.17891
H      3.47405   21.96479    1.64048
H      2.74278   21.95409    3.25353
H      3.23047   19.84268    4.57148
H      5.91536   21.19021    1.16102
H      5.69246   19.48486    1.58808
H      8.18613   20.27196    1.65326
H      7.61548   19.60459    3.19793
H      8.87269   22.81827    1.37571
H      7.16051   23.34394    1.42723
H      8.38217   24.15505    2.45910
H     10.18313   21.61569    3.42143
H      9.62760   22.81967    4.64312
H      9.37780   21.08653    4.94560
H      4.98445   23.73698    2.15957
H      3.42038   24.29450    2.76159
C      3.91170   24.02147    5.33103
H      4.52168   24.32369    6.19049
H      3.26767   24.88244    5.07495
C      5.70049   25.01610    4.02719
H      6.40944   24.76115    3.23010
H      5.03078   25.79426    3.61524
H      4.69072   18.02166    5.50467
H      5.94411   18.38199    4.30073
C      4.84862   20.14077    7.46380
H      3.79655   20.34374    7.22239
H      4.92686   19.15715    7.95439
H      5.22358   20.92088    8.13937
C      7.47496   19.52177    6.48509
H      7.35336   18.58879    7.05886
H      8.10294   19.32487    5.60611
H      7.94934   20.29363    7.10814
C      6.44140   25.56363    5.21630
H      5.77272   25.95707    5.99470
H      7.10946   24.81440    5.65991
H      7.05048   26.41220    4.86817
C      3.08877   22.81412    5.70658
H      2.70120   22.92870    6.72923
H      2.22723   22.64872    5.04734
H      3.72341   21.91105    5.68822
