17

O      0.00000    0.00000    1.54242
Fe     0.00000    0.00000    0.05758
O     -0.02532   -2.04942    0.01581
O      0.01885    2.04941    0.01209
O     -2.09136   -0.00340   -0.13272
O      2.09172    0.00000   -0.12867
O      0.00000    0.00000   -1.99242
H      0.26040   -2.63210   -0.70981
H      0.04961   -2.57039    0.83595
H     -0.25655    2.63228   -0.71729
H     -0.05040    2.57471    0.82990
H     -2.58023    0.46315    0.57154
H     -2.52460   -0.87680   -0.17049
H      2.52747    0.87055   -0.19322
H      2.57839   -0.44571    0.59050
H     -0.77522    0.08407   -2.57305
H      0.77001   -0.10212   -2.57701
