52

O      7.45303   23.14289    6.04439
Fe     6.29626   22.11541    4.92600
N      5.94858   20.38552    6.04666
C      5.69273   19.21143    5.17991
C      4.62198   19.48803    4.13991
P      5.03210   21.10666    3.44238
C      3.63838   22.18860    3.05181
C      4.21506   23.58201    3.21374
N      4.95979   23.74669    4.48594
C      6.06866   20.82375    1.91914
C      7.48332   20.64763    2.46003
N      7.83940   21.62993    3.49421
C      9.08131   21.22834    4.16512
C      8.01492   22.96214    2.90624
H      4.60012   18.72770    3.34268
H      3.26691   22.01566    2.02833
H      2.80563   21.98577    3.74247
H      3.61116   19.52688    4.57404
H      5.99467   21.77428    1.36526
H      8.21291   20.69197    1.63115
H      7.56765   19.64574    2.90682
H      8.81185   22.94898    2.14159
H      7.08083   23.28880    2.43246
H      8.29005   23.66731    3.70122
H      9.92441   21.24297    3.45306
H      9.28002   21.92141    4.99231
H      8.97527   20.20808    4.55329
H      4.92356   23.79036    2.39804
H      3.42435   24.35086    3.14998
C      4.03477   23.74776    5.62592
H      4.60853   23.85259    6.55503
H      3.32914   24.59323    5.54795
H      3.46026   22.81581    5.65393
C      5.67332   25.03389    4.46187
H      6.26480   25.13587    5.37854
H      6.34682   25.07406    3.59907
H      4.94833   25.86186    4.38506
H      5.40475   18.36735    5.83029
H      6.64484   18.94748    4.70035
C      4.73136   20.64291    6.91616
H      3.92740   20.92840    6.22409
H      5.00216   21.53013    7.50797
C      7.08831   20.09074    6.92782
H      6.86479   19.19708    7.53202
H      7.98539   19.90271    6.32995
H      7.27520   20.94892    7.58276
N      5.55894   19.76438    1.12824
H      5.47419   19.97397    0.13826
H      6.03363   18.87519    1.25473
N      4.37951   19.52723    7.69049
H      3.45501   19.14427    7.53263
H      4.58939   19.58153    8.68081
