33

O      6.93792   22.81028    7.19353
Fe     6.18281   21.61797    4.77756
N      5.93942   19.54796    5.31947
C      5.63149   18.66537    4.18618
C      4.46894   19.10062    3.30942
C      3.88793   21.64237    3.23875
C      4.38054   23.01799    2.80752
N      5.68376   23.28593    3.42869
C      5.81310   20.58152    1.67538
C      7.22013   20.54895    2.21462
N      7.52184   21.03140    3.39527
H      4.35573   18.28909    2.57218
H      2.80987   21.58809    3.00818
H      3.52342   19.06572    3.87904
H      5.74564   21.51221    1.08629
H      5.75814   19.78636    0.91534
H      4.41841   23.09937    1.71147
H      3.65156   23.77266    3.14275
H      5.41665   17.64570    4.55114
H      6.54509   18.58297    3.58060
C      4.53540   20.41932    2.51864
H      3.80184   20.26409    1.71103
H      6.81330   19.24580    5.75978
H      5.23818   19.44889    6.05852
H      8.51791   21.00319    3.62312
H      6.43291   23.35989    2.74076
H      5.68466   24.17032    3.94012
N      8.13529   20.05793    1.37736
H      9.12659   20.06829    1.59930
H      7.88033   19.70926    0.45976
N      4.07218   21.59323    4.69341
H      3.63843   22.40035    5.15036
H      3.61707   20.77166    5.09048
