45

O     -0.32568   -2.98039    0.78201
Fe    -0.23407   -2.33567    1.71943
N      1.87508   -2.46481    2.19312
N      0.27750   -0.44967    0.91215
N     -2.27102   -2.00769    2.32905
O     -0.16870   -2.19114    3.89854
C     -0.05132   -0.37168   -0.51891
C      1.73471   -0.28453    1.10893
C      2.22304   -1.03714    2.32452
C      2.67947   -3.12037    1.15483
C     -0.45713    0.57421    1.69162
C     -1.96453    0.42482    1.73330
C     -2.50484   -0.59844    2.70547
C     -3.15471   -2.42414    1.22952
C      1.06488   -2.53647    4.50794
C      1.87045   -3.22867    3.43780
C     -1.37980   -2.56995    4.55440
C     -2.37702   -2.91562    3.46604
H     -2.96919   -3.47828    0.99089
H     -4.20740   -2.29255    1.52616
H     -2.94490   -1.82188    0.33871
H      0.22436    0.61888   -0.91883
H      0.48789   -1.15920   -1.05867
H     -1.12425   -0.53187   -0.67132
H      1.98403    0.78527    1.20900
H      2.24176   -0.63801    0.20284
H      2.52540   -2.62247    0.19231
H      3.74872   -3.08865    1.42331
H      2.35587   -4.16199    1.05187
H      1.74228   -0.63126    3.22292
H      3.31237   -0.90358    2.44426
H      2.88330   -3.50246    3.78157
H     -1.21933   -3.46013    5.18090
H     -1.72848   -1.74425    5.19492
H     -2.18834   -3.93177    3.08476
H     -2.04702   -0.42970    3.68847
H     -3.59160   -0.46372    2.83530
H     -2.35884    1.39726    2.06987
H     -2.38687    0.29554    0.72647
H     -0.05759    0.56132    2.71785
H     -0.20002    1.55822    1.25928
H      1.56465   -1.62883    4.88734
H      0.91874   -3.21615    5.36057
Br     0.93345   -4.90653    3.07321
Br    -4.12789   -2.97668    4.27318
