53

O      5.91402   23.11052    7.18720
Fe     6.35959   22.47202    5.53300
P      6.02213   20.31984    6.06097
C      5.78663   19.03637    4.78586
C      4.71948   19.21223    3.70891
C      4.21251   21.68372    3.66766
C      4.44623   23.08494    3.10530
P      5.07829   24.02858    4.52768
C      5.90761   20.67764    1.96118
C      7.29079   20.76056    2.57830
P      7.66428   22.11000    3.74191
C      9.27122   21.62914    4.44061
C      8.09707   23.51562    2.67859
H      4.81529   18.34812    3.03188
H      4.97400   21.65262    4.57089
H      3.73803   19.07834    4.18971
H      5.74375   21.54369    1.30071
H      5.93292   19.81796    1.27111
H      8.04026   20.87218    1.77538
H      7.55746   19.83291    3.09867
H      8.92948   23.22446    2.01815
H      7.24597   23.82070    2.05535
H      8.41613   24.36468    3.30056
H     10.00199   21.45221    3.63458
H      9.64920   22.43346    5.09116
H      9.15416   20.71321    5.03654
H      5.23735   23.07367    2.34527
H      3.54623   23.51965    2.64041
C      3.66981   24.33099    5.61327
H      4.03359   24.89011    6.48801
H      2.89732   24.91485    5.08738
H      3.25762   23.37570    5.96373
C      5.61677   25.66592    4.00051
H      6.02104   26.19890    4.87572
H      6.38687   25.61231    3.22223
H      4.74523   26.22255    3.61829
H      5.52642   18.13768    5.37422
H      6.77853   18.81770    4.36691
C      4.35570   20.37901    6.95999
H      3.66242   20.84923    6.24105
H      4.07520   19.31394    7.05128
C      7.14096   19.56805    7.26439
H      6.75376   18.57988    7.56260
H      8.15121   19.45027    6.84722
H      7.19501   20.22524    8.14248
C      4.68220   20.47708    2.84485
H      3.85689   20.31319    2.12741
N      4.34060   21.02332    8.20027
H      4.58165   22.01462    8.15694
H      4.81750   20.54220    8.95692
N      2.91632   21.52713    4.18247
H      2.27920   22.30555    4.06456
H      2.46352   20.63452    4.02130
