36

O      7.82437   22.66421    6.91007
Fe     5.98454   21.70910    4.94175
N      5.21121   20.00565    5.71682
C      5.42411   19.00549    4.64086
C      4.43916   19.20621    3.49418
C      3.56857   21.72357    2.90001
C      4.29728   23.04987    3.11639
N      4.76979   23.27377    4.49532
C      5.56361   20.63382    1.61743
C      6.96228   20.63275    2.17253
O      7.12048   21.56757    3.27553
H      4.61730   18.34016    2.83720
H      3.04371   21.94200    1.95452
H      3.43370   19.02515    3.90732
H      5.40218   21.54708    1.02305
H      5.58396   19.81880    0.87353
H      7.67347   20.93950    1.38834
H      7.26468   19.63361    2.52850
H      5.16591   23.14998    2.44987
H      3.59964   23.86399    2.85367
H      6.46564   19.15186    4.30090
C      4.34863   20.41078    2.53080
H      3.61477   19.98234    1.82919
H      5.72918   19.74108    6.56159
H      4.22229   20.02318    5.98731
H      8.05821   21.79160    3.39030
H      5.26827   24.16622    4.57560
H      3.97550   23.34402    5.14048
C      2.47810   21.50920    3.93433
H      1.82525   22.39366    4.00899
H      1.83338   20.65953    3.66611
H      2.87498   21.30634    4.94295
C      5.32001   17.59900    5.20630
H      5.55815   16.85751    4.42941
H      6.02481   17.44930    6.03943
H      4.29734   17.40051    5.56572
