22

O      0.66051   -0.89915   -2.28492
N      2.79878   -0.75498   -0.41972
H      3.21989   -0.62371   -1.34293
H      3.07628   -1.69324   -0.11662
Fe     0.64821   -0.49646   -0.73020
H      3.26331   -0.09277    0.20717
P      0.74421    1.77097   -1.12377
H      0.11819    2.19642   -2.32535
H      0.11796    2.62370   -0.17665
P     -0.57160   -2.44586   -0.48650
H     -1.46733   -2.72344   -1.54847
H      0.29550   -3.56884   -0.54244
H     -1.34740   -2.75422    0.66160
P     -1.98622    0.47071   -0.94972
H     -2.37131    0.04025   -2.24560
H     -2.94231   -0.23275   -0.16537
H     -2.60801    1.75281   -0.92983
P      0.55048   -0.10720    1.52522
H      0.89280   -1.19172    2.38192
H     -0.72539    0.21939    2.06211
Br     1.82122    1.47374    2.29215
Br     2.73009    2.63174   -1.27712
