23

O      0.48778   -0.13095   -2.73758
O     -0.52170   -2.07818   -0.23040
O      0.08708    2.13902   -0.31843
P      1.98529   -0.26574    0.67454
N     -2.58433    0.38424   -0.11640
O     -0.64925    0.13074    1.73012
H     -0.44904   -2.37325    0.69366
H      0.25540    2.43204    0.59357
H      2.84141    0.68350    0.06543
H      2.49960   -1.49504    0.19402
H     -2.93705    1.27309    0.25180
H     -2.81548    0.39921   -1.11484
H      0.00201    0.06919    2.44469
H     -1.49736    0.26955    2.17863
Fe    -0.45070    0.07177    0.10462
H      2.50062   -0.26749    1.99906
H     -3.17725   -0.34992    0.28305
N      1.16517    2.69351   -1.07327
H      0.81768    3.60816   -1.39149
H      1.18033    2.09519   -1.90674
N      0.34449   -2.95293   -0.95283
H      0.52376   -2.42326   -1.81327
H     -0.25295   -3.74360   -1.22961
