33

O      6.76346   22.53480    6.63533
Fe     6.35727   21.89345    5.33576
N      6.11388   19.82344    5.87767
C      5.80595   18.94085    4.74438
C      4.64340   19.37610    3.86762
C      4.06239   21.91785    3.79695
C      4.55500   23.29347    3.36572
N      5.85822   23.56141    3.98689
C      5.98756   20.85700    2.23358
C      7.39459   20.82443    2.77282
N      7.69630   21.30688    3.95347
H      4.53019   18.56457    3.13038
H      2.98433   21.86357    3.56638
H      3.69788   19.34120    4.43724
H      5.92010   21.78769    1.64449
H      5.93260   20.06184    1.47354
H      4.59287   23.37485    2.26967
H      3.82602   24.04814    3.70095
H      5.59111   17.92118    5.10934
H      6.71955   18.85845    4.13880
C      4.70986   20.69480    3.07684
H      3.97630   20.53957    2.26923
H      6.98776   19.52128    6.31798
H      5.41264   19.72437    6.61672
H      8.69237   21.27867    4.18132
H      6.60737   23.63537    3.29896
H      5.85912   24.44580    4.49832
N      8.30975   20.33341    1.93556
H      9.30105   20.34377    2.15750
H      8.05479   19.98474    1.01796
N      4.24664   21.86871    5.25161
H      3.81289   22.67583    5.70856
H      3.79153   21.04714    5.64868
