22

O      0.61310   -0.29515   -2.71224
O     -0.66709   -2.13712   -0.38183
O     -0.40269    1.91058    0.42921
P      2.00327   -0.52455    0.50016
O     -2.35339    0.11938   -0.75358
O     -0.76755   -0.13725    1.74867
H     -0.72924   -2.43266    0.54358
H     -0.88057    1.97370    1.34249
H     -0.00177    2.74428    0.14950
H      2.92618    0.35685   -0.11549
H      2.43987   -1.78901    0.03552
H     -2.71514    0.87660   -1.24004
H     -2.86977   -0.64808   -1.04523
H      0.06134   -0.08743    2.25404
Fe    -0.36027   -0.02418   -0.14644
H      2.49813   -0.54210    1.83251
N      0.19404   -3.08776   -1.01502
H     -0.43151   -3.85283   -1.30283
H      0.44633   -2.60182   -1.88377
N     -1.42320    1.10119    2.01296
H     -2.39675    0.90660    1.75224
H     -1.43649    1.24044    3.03273
