19

O      0.59514   -0.16129   -1.62933
O      0.03760   -2.17737   -0.41234
O      0.60051    2.01058   -0.50971
P      2.80792   -0.42458   -0.23217
P     -2.22553    0.28254   -0.92454
O     -0.19929    0.04417    1.85116
H     -0.53678   -2.58854    0.25103
H     -0.06511   -2.70021   -1.22298
H      0.74634    2.45980    0.33682
H      1.23855    2.39836   -1.13111
H      3.35839   -1.49162   -0.99160
H     -2.38730    1.24743   -1.95659
H      0.37968   -0.22737    2.57891
H     -1.02912    0.31306    2.27257
Fe     0.33208   -0.09066   -0.66714
H      3.40541   -0.69477    1.03315
H     -3.31886    0.66526   -0.09332
Br    -2.95938   -1.53617   -1.85346
Br     3.91923    1.30276   -0.91631
