54

O      7.22144   22.79971    6.56398
Fe     6.16381   22.21649    5.05950
P      5.97451   20.18778    6.13064
C      5.24375   18.89125    5.05714
C      4.22407   19.56729    4.16208
P      5.04222   21.05962    3.50987
C      3.79200   22.20851    2.87436
C      4.33072   23.60816    3.08567
N      4.98430   23.85786    4.39408
C      6.14773   20.52288    2.14277
C      7.58188   20.48579    2.64003
P      7.91112   22.05653    3.52550
C      9.52060   21.91878    4.32858
C      8.18353   23.25720    2.19393
H      3.86261   18.92233    3.34432
H      3.59033   22.02892    1.80589
H      2.85906   22.01822    3.41894
H      3.34675   19.90681    4.73689
H      6.03164   21.25434    1.32643
H      5.80874   19.54899    1.75349
H      8.30241   20.33609    1.81867
H      7.73176   19.66872    3.36334
H      8.98897   22.88240    1.54112
H      7.27679   23.40807    1.59264
H      8.49845   24.21918    2.62451
H     10.29941   21.67982    3.58684
H      9.74388   22.88380    4.80853
H      9.49408   21.15066    5.11101
H      5.10073   23.80111    2.32498
H      3.53666   24.35863    2.92700
C      4.02798   24.08560    5.49644
H      4.63796   24.38782    6.35590
H      3.38395   24.94657    5.24036
C      5.81677   25.08023    4.19260
H      6.52572   24.82528    3.39551
H      5.14706   25.85839    3.78065
H      4.80700   18.08579    5.67008
H      6.06039   18.44612    4.46614
C      4.96490   20.20490    7.62921
H      3.91283   20.40787    7.38780
H      5.04314   19.22128    8.11980
H      5.33986   20.98501    8.30478
C      7.59124   19.58590    6.65050
H      7.46964   18.65292    7.22427
H      8.21922   19.38900    5.77152
H      8.06562   20.35776    7.27355
C      6.55768   25.62776    5.38171
H      5.88900   26.02120    6.16011
H      7.22574   24.87853    5.82532
H      7.16676   26.47633    5.03358
C      3.20505   22.87825    5.87199
H      2.81748   22.99283    6.89464
H      2.34351   22.71285    5.21275
H      3.83969   21.97518    5.85363
