22

O      0.66516   -1.05110   -2.87160
N      2.79878   -0.75498   -0.41972
H      3.21989   -0.62371   -1.34293
H      3.07628   -1.69324   -0.11662
Fe     0.64356   -0.34451   -0.14352
H      3.26331   -0.09277    0.20717
P      0.73956    1.92292   -0.53709
H      0.11354    2.34837   -1.73867
H      0.11331    2.77565    0.41003
P     -0.57625   -2.29391    0.10018
H     -1.47198   -2.57149   -0.96179
H      0.29085   -3.41689    0.04424
H     -1.35205   -2.60227    1.24828
P     -1.98622    0.47071   -0.94972
H     -2.37131    0.04025   -2.24560
H     -2.94231   -0.23275   -0.16537
H     -2.60801    1.75281   -0.92983
P      0.54583    0.04475    2.11190
H      0.88815   -1.03977    2.96860
H     -0.73004    0.37134    2.64879
Br     1.81657    1.62569    2.87883
Br     2.72544    2.78369   -0.69044
