29

O     -2.49134    2.15652    1.62180
Fe    -2.39072    2.18448    0.36350
N     -3.64422    3.84979    0.05231
O     -1.93534    1.69862   -2.01175
N     -0.30128    2.47721    0.44097
O     -3.65676    0.53597    0.31127
C     -4.89244    3.62762    0.80024
H     -5.56135    4.49664    0.67869
H     -5.39752    2.73151    0.41439
H     -4.66010    3.48905    1.86298
C     -2.89725    4.99253    0.59923
H     -1.96751    5.13996    0.03046
H     -3.50044    5.91401    0.52246
H     -2.66327    4.80344    1.65530
C     -3.93049    4.04351   -1.37418
H     -4.47231    3.17005   -1.76571
H     -4.57148    4.93132   -1.51523
H     -2.99609    4.20385   -1.93003
H     -1.31125    1.00478   -2.27108
H     -2.51814    1.81556   -2.77573
H      0.10459    2.27002    1.36102
H     -3.89438    0.33074    1.22960
C      0.53154    2.96802   -0.39478
H      1.59171    3.13768   -0.13874
H      0.19177    3.23314   -1.40720
C     -3.83493   -0.62493   -0.51293
H     -3.09574   -1.40322   -0.25839
H     -4.85641   -1.01594   -0.37823
H     -3.70621   -0.31149   -1.55590
