54

O      7.34880   22.86995    6.74514
Fe     6.03645   22.14625    4.87834
P      5.84715   20.11754    5.94948
C      5.11639   18.82101    4.87598
C      4.09671   19.49705    3.98092
P      4.91486   20.98938    3.32871
C      3.66464   22.13827    2.69320
C      4.20336   23.53792    2.90451
N      4.85694   23.78762    4.21292
C      6.02037   20.45264    1.96161
C      7.45452   20.41555    2.45887
P      7.78376   21.98629    3.34434
C      9.39324   21.84854    4.14742
C      8.05617   23.18696    2.01277
H      3.73525   18.85209    3.16316
H      3.46297   21.95868    1.62473
H      2.73170   21.94798    3.23778
H      3.21939   19.83657    4.55573
H      5.90428   21.18410    1.14527
H      5.68138   19.47875    1.57233
H      8.17505   20.26585    1.63751
H      7.60440   19.59848    3.18218
H      8.86161   22.81216    1.35996
H      7.14943   23.33783    1.41148
H      8.37109   24.14894    2.44335
H     10.17205   21.60958    3.40568
H      9.61652   22.81356    4.62737
H      9.36672   21.08042    4.92985
H      4.97337   23.73087    2.14382
H      3.40930   24.28839    2.74584
C      3.90062   24.01536    5.31528
H      4.51060   24.31758    6.17474
H      3.25659   24.87633    5.05920
C      5.68941   25.00999    4.01144
H      6.39836   24.75504    3.21435
H      5.01970   25.78815    3.59949
H      4.67964   18.01555    5.48892
H      5.93303   18.37588    4.28498
C      4.83754   20.13466    7.44805
H      3.78547   20.33763    7.20664
H      4.91578   19.15104    7.93864
H      5.21250   20.91477    8.12362
C      7.46388   19.51566    6.46934
H      7.34228   18.58268    7.04311
H      8.09186   19.31876    5.59036
H      7.93826   20.28752    7.09239
C      6.43032   25.55752    5.20055
H      5.76164   25.95096    5.97895
H      7.09838   24.80829    5.64416
H      7.03940   26.40609    4.85242
C      3.07769   22.80801    5.69083
H      2.69012   22.92259    6.71348
H      2.21615   22.64261    5.03159
H      3.71233   21.90494    5.67247
