53

O      5.81555   23.25163    7.55277
Fe     6.45806   22.33091    5.16743
P      6.12060   20.17873    5.69540
C      5.88510   18.89526    4.42029
C      4.81795   19.07112    3.34334
C      4.31098   21.54261    3.30209
C      4.54470   22.94383    2.73973
P      5.17676   23.88747    4.16211
C      6.00608   20.53653    1.59561
C      7.38926   20.61945    2.21273
P      7.76275   21.96889    3.37634
C      9.36969   21.48803    4.07504
C      8.19554   23.37451    2.31302
H      4.91376   18.20701    2.66631
H      5.07247   21.51151    4.20532
H      3.83650   18.93723    3.82414
H      5.84222   21.40258    0.93514
H      6.03139   19.67685    0.90554
H      8.13873   20.73107    1.40981
H      7.65593   19.69180    2.73310
H      9.02795   23.08335    1.65258
H      7.34444   23.67959    1.68978
H      8.51460   24.22357    2.93499
H     10.10046   21.31110    3.26901
H      9.74767   22.29235    4.72559
H      9.25263   20.57210    4.67097
H      5.33582   22.93256    1.97970
H      3.64470   23.37854    2.27484
C      3.76828   24.18988    5.24770
H      4.13206   24.74900    6.12244
H      2.99579   24.77374    4.72181
H      3.35609   23.23459    5.59816
C      5.71524   25.52481    3.63494
H      6.11951   26.05779    4.51015
H      6.48534   25.47120    2.85666
H      4.84370   26.08144    3.25272
H      5.62489   17.99657    5.00865
H      6.87700   18.67659    4.00134
C      4.45417   20.23790    6.59442
H      3.76089   20.70812    5.87548
H      4.17367   19.17283    6.68571
C      7.23943   19.42694    6.89882
H      6.85223   18.43877    7.19703
H      8.24968   19.30916    6.48165
H      7.29348   20.08413    7.77691
C      4.78067   20.33597    2.47928
H      3.95536   20.17208    1.76184
N      4.43907   20.88221    7.83470
H      4.68012   21.87351    7.79137
H      4.91597   20.40109    8.59135
N      3.01479   21.38602    3.81690
H      2.37767   22.16444    3.69899
H      2.56199   20.49341    3.65573
