29

O     -2.53480    2.14443    2.16539
Fe    -2.34726    2.19657   -0.18009
N     -3.60076    3.86188   -0.49128
O     -1.93534    1.69862   -2.01175
N     -0.25782    2.48930   -0.10262
O     -3.61330    0.54806   -0.23232
C     -4.84898    3.63971    0.25665
H     -5.51789    4.50873    0.13510
H     -5.35406    2.74360   -0.12920
H     -4.61664    3.50114    1.31939
C     -2.85379    5.00462    0.05564
H     -1.92405    5.15205   -0.51313
H     -3.45698    5.92610   -0.02113
H     -2.61981    4.81553    1.11171
C     -3.88703    4.05560   -1.91777
H     -4.42885    3.18214   -2.30930
H     -4.52802    4.94341   -2.05882
H     -2.95263    4.21594   -2.47362
H     -1.31125    1.00478   -2.27108
H     -2.51814    1.81556   -2.77573
H      0.14805    2.28211    0.81743
H     -3.85092    0.34283    0.68601
C      0.57500    2.98011   -0.93837
H      1.63517    3.14977   -0.68233
H      0.23523    3.24523   -1.95079
C     -3.79147   -0.61284   -1.05652
H     -3.05228   -1.39113   -0.80198
H     -4.81295   -1.00385   -0.92182
H     -3.66275   -0.29940   -2.09949
