18

O      0.83049   -0.10566   -2.66184
O     -0.41446   -2.06586    0.38232
O      0.31762    2.08557    0.42781
N      2.15442   -0.38173    0.72693
O     -1.87800    0.34074   -0.54394
O     -0.33312    0.05252    1.71435
H     -0.63792   -2.48552    1.23319
H      0.23837    2.54127    1.28570
H      2.74960    0.35414    0.33263
H      2.47238   -1.25127    0.28646
H     -2.16696    1.17628   -0.94383
H     -2.43112   -0.34195   -0.95570
H      0.09815   -0.02801    2.57767
H     -1.27174    0.21562    1.89506
Fe     0.12824   -0.01755    0.17025
H      2.39926   -0.45253    1.71847
Br     1.12714    3.28552   -0.72996
Br    -0.01160   -3.44477   -0.78936
