23

O      0.21109   -0.45227   -1.76519
O     -0.50052   -2.25740   -0.20057
O      0.18933    2.08207   -0.28257
P      2.30972   -0.55754    0.05634
N     -2.19068    0.22638   -0.89484
O     -0.47882    0.27163    1.69224
H     -0.94371   -2.66729    0.55647
H     -0.37788   -2.94670   -0.87041
H      3.16724    0.33118   -0.64201
H      2.77127   -1.79303   -0.46383
H     -2.37547    0.96080   -1.58341
H     -2.70413   -0.59632   -1.22463
H     -0.05123   -0.17854    2.43422
H     -0.23636    1.24145    1.77340
Fe    -0.09232   -0.22033   -0.64677
H      2.94239   -0.56589    1.32942
H     -2.64136    0.51438   -0.02153
N      0.24389    2.71179    0.98275
H      1.19077    3.09130    1.11489
H     -0.41483    3.50186    0.97497
N      0.49817    2.81617   -1.41346
H     -0.13512    3.62353   -1.46170
H      1.46051    3.16516   -1.32741
