23

O      0.28555   -0.08726   -2.12512
O     -0.52170   -2.07818   -0.23040
O      0.08708    2.13902   -0.31843
P      2.18752   -0.30943    0.06208
N     -2.38210    0.34055   -0.72886
O     -0.64925    0.13074    1.73012
H     -0.44904   -2.37325    0.69366
H      0.25540    2.43204    0.59357
H      3.04364    0.63981   -0.54703
H      2.70183   -1.53873   -0.41844
H     -2.73482    1.22940   -0.36066
H     -2.61325    0.35552   -1.72730
H      0.00201    0.06919    2.44469
H     -1.49736    0.26955    2.17863
Fe    -0.24847    0.02808   -0.50784
H      2.70285   -0.31118    1.38660
H     -2.97502   -0.39361   -0.32941
N      1.16517    2.69351   -1.07327
H      0.81768    3.60816   -1.39149
H      1.18033    2.09519   -1.90674
N      0.34449   -2.95293   -0.95283
H      0.52376   -2.42326   -1.81327
H     -0.25295   -3.74360   -1.22961
