22

O      0.59470   -0.09723   -2.49227
O     -0.13176   -2.17943   -0.07121
O      0.10773    2.16127   -0.26153
P      2.22388   -0.27422    0.52337
O     -2.18791   -0.03161   -0.25949
O     -0.64106    0.01076    1.68341
H     -0.22828   -2.85443   -0.76923
H      0.53141    2.57598    0.50515
H      0.36283    2.70154   -1.02613
H      3.13399    0.77185    0.22369
H      2.86626   -1.36874   -0.10648
H     -2.76372    0.35380   -0.93462
H     -2.46895    0.29906    0.69556
H     -0.79213   -1.01458    1.66698
Fe    -0.14768    0.06482   -0.22212
H      2.53233   -0.51738    1.88727
N     -0.93253   -2.47185    1.03290
H     -1.88513   -2.68965    0.71559
H     -0.54582   -3.29455    1.51254
N     -1.94509    0.54948    1.82075
H     -2.37163    0.13016    2.65796
H     -1.79979    1.53586    2.06131
