37

O      0.71456    0.31640    2.91177
N      0.37292   -1.92506    1.14331
C      1.27775   -1.87335   -0.01997
H      0.72268   -1.42940   -0.86111
H      1.57131   -2.89383   -0.32468
C     -0.98792   -2.38298    0.80145
H     -1.46244   -2.64872    1.75747
H     -0.95414   -3.28997    0.17215
C      2.48802   -1.03156    0.31060
H      3.08117   -1.51012    1.10434
H      3.14912   -0.94182   -0.56737
C     -1.77941   -1.29921    0.12041
H     -2.82909   -1.61807    0.00538
H     -1.38614   -1.04013   -0.87906
C      1.91972    1.34245   -0.20749
H      2.90411    1.66294   -0.59170
H      1.36015    0.93963   -1.06546
C     -2.27145    1.07088    0.49801
H     -2.75366    1.55168    1.36110
H     -3.02889    0.87181   -0.27516
C     -1.14186    1.91600   -0.03756
H     -0.69346    1.44855   -0.92618
H     -1.50748    2.91423   -0.34283
C      1.19799    2.51281    0.42180
H      1.78751    2.90900    1.26323
H      1.04806    3.33465   -0.29941
N     -0.08734    2.05031    0.98107
Fe     0.17913    0.10238    1.83412
N      2.05676    0.28513    0.79468
O     -1.71385   -0.15915    0.98015
H      2.68540    0.60448    1.53453
N      0.83880   -2.65731    2.24916
H      1.66836   -2.20867    2.63417
H      1.08317   -3.61388    1.97085
N     -0.59344    2.74891    2.08588
H     -0.81336    3.72052    1.83995
H      0.10342    2.73930    2.83135
