29

O     -2.54205    2.14242    2.25598
Fe    -2.34001    2.19858   -0.27068
N     -3.59351    3.86389   -0.58187
O     -1.93534    1.69862   -2.01175
N     -0.25057    2.49131   -0.19321
O     -3.60605    0.55007   -0.32291
C     -4.84173    3.64172    0.16606
H     -5.51064    4.51074    0.04451
H     -5.34681    2.74561   -0.21979
H     -4.60939    3.50315    1.22880
C     -2.84654    5.00663   -0.03495
H     -1.91680    5.15406   -0.60372
H     -3.44973    5.92811   -0.11172
H     -2.61256    4.81754    1.02112
C     -3.87978    4.05761   -2.00836
H     -4.42160    3.18415   -2.39989
H     -4.52077    4.94542   -2.14941
H     -2.94538    4.21795   -2.56421
H     -1.31125    1.00478   -2.27108
H     -2.51814    1.81556   -2.77573
H      0.15530    2.28412    0.72684
H     -3.84367    0.34484    0.59542
C      0.58225    2.98212   -1.02896
H      1.64242    3.15178   -0.77292
H      0.24248    3.24724   -2.04138
C     -3.78422   -0.61083   -1.14711
H     -3.04503   -1.38912   -0.89257
H     -4.80570   -1.00184   -1.01241
H     -3.65550   -0.29739   -2.19008
