23

O      0.47944    0.02348   -2.72510
O     -0.34171   -2.14590   -0.36927
O      0.07797    2.13762   -0.25050
P      2.11741   -0.06083    0.81159
N     -2.43766    0.33046   -0.05014
O     -0.50235   -0.00774    1.78455
H     -0.29125   -2.72988    0.40104
H     -0.04963   -2.67424   -1.12796
H      0.21245    2.33993    0.69112
H      3.00198    0.01956   -0.29520
H      2.57738   -1.25667    1.41846
H     -2.85852    0.98480    0.61561
H     -2.61607    0.73904   -0.97291
H     -1.32007   -0.07150    2.31196
Fe    -0.30303   -0.02640    0.10780
H      2.65397    0.92665    1.66688
H     -3.00346   -0.52328   -0.01290
N      0.63723   -0.17022    2.58810
H      0.63611    0.57358    3.29585
H      0.55295   -1.05986    3.09300
N      1.30087    2.56617   -0.86762
H      1.15845    3.56836   -1.05404
H      1.24400    2.10899   -1.78554
