53

O      5.84263   23.21282    7.45224
Fe     6.43098   22.36972    5.26796
P      6.09352   20.21754    5.79593
C      5.85802   18.93407    4.52082
C      4.79087   19.10993    3.44387
C      4.28390   21.58142    3.40262
C      4.51762   22.98264    2.84026
P      5.14968   23.92628    4.26264
C      5.97900   20.57534    1.69614
C      7.36218   20.65826    2.31326
P      7.73567   22.00770    3.47687
C      9.34261   21.52684    4.17557
C      8.16846   23.41332    2.41355
H      4.88668   18.24582    2.76684
H      5.04539   21.55032    4.30585
H      3.80942   18.97604    3.92467
H      5.81514   21.44139    1.03567
H      6.00431   19.71566    1.00607
H      8.11165   20.76988    1.51034
H      7.62885   19.73061    2.83363
H      9.00087   23.12216    1.75311
H      7.31736   23.71840    1.79031
H      8.48752   24.26238    3.03552
H     10.07338   21.34991    3.36954
H      9.72059   22.33116    4.82612
H      9.22555   20.61091    4.77150
H      5.30874   22.97137    2.08023
H      3.61762   23.41735    2.37537
C      3.74120   24.22869    5.34823
H      4.10498   24.78781    6.22297
H      2.96871   24.81255    4.82234
H      3.32901   23.27340    5.69869
C      5.68816   25.56362    3.73547
H      6.09243   26.09660    4.61068
H      6.45826   25.51001    2.95719
H      4.81662   26.12025    3.35325
H      5.59781   18.03538    5.10918
H      6.84992   18.71540    4.10187
C      4.42709   20.27671    6.69495
H      3.73381   20.74693    5.97601
H      4.14659   19.21164    6.78624
C      7.21235   19.46575    6.99935
H      6.82515   18.47758    7.29756
H      8.22260   19.34797    6.58218
H      7.26640   20.12294    7.87744
C      4.75359   20.37478    2.57981
H      3.92828   20.21089    1.86237
N      4.41199   20.92102    7.93523
H      4.65304   21.91232    7.89190
H      4.88889   20.43990    8.69188
N      2.98771   21.42483    3.91743
H      2.35059   22.20325    3.79952
H      2.53491   20.53222    3.75626
