19

O      0.64829   -0.17556   -1.82371
O     -0.01555   -2.16310   -0.21796
O      0.54736    2.02485   -0.31533
P      2.75477   -0.41031   -0.03779
P     -2.22553    0.28254   -0.92454
O     -0.19929    0.04417    1.85116
H     -0.58993   -2.57427    0.44541
H     -0.11826   -2.68594   -1.02860
H      0.69319    2.47407    0.53120
H      1.18540    2.41263   -0.93673
H      3.30524   -1.47735   -0.79722
H     -2.38730    1.24743   -1.95659
H      0.37968   -0.22737    2.57891
H     -1.02912    0.31306    2.27257
Fe     0.27893   -0.07639   -0.47276
H      3.35226   -0.68050    1.22753
H     -3.31886    0.66526   -0.09332
Br    -2.95938   -1.53617   -1.85346
Br     3.86608    1.31703   -0.72193
