22

O      0.58814   -0.28820   -2.64645
O     -0.66709   -2.13712   -0.38183
O     -0.37773    1.90363    0.36342
P      2.02823   -0.53150    0.43437
O     -2.35339    0.11938   -0.75358
O     -0.76755   -0.13725    1.74867
H     -0.72924   -2.43266    0.54358
H     -0.85561    1.96675    1.27670
H      0.02319    2.73733    0.08371
H      2.95114    0.34990   -0.18128
H      2.46483   -1.79596   -0.03027
H     -2.71514    0.87660   -1.24004
H     -2.86977   -0.64808   -1.04523
H      0.06134   -0.08743    2.25404
Fe    -0.33531   -0.03113   -0.21223
H      2.52309   -0.54905    1.76672
N      0.19404   -3.08776   -1.01502
H     -0.43151   -3.85283   -1.30283
H      0.44633   -2.60182   -1.88377
N     -1.42320    1.10119    2.01296
H     -2.39675    0.90660    1.75224
H     -1.43649    1.24044    3.03273
