23

O      0.40684    0.01885   -2.46225
O     -0.34171   -2.14590   -0.36927
O      0.07797    2.13762   -0.25050
P      2.19001   -0.05620    0.54874
N     -2.36506    0.33509   -0.31299
O     -0.50235   -0.00774    1.78455
H     -0.29125   -2.72988    0.40104
H     -0.04963   -2.67424   -1.12796
H      0.21245    2.33993    0.69112
H      3.07458    0.02419   -0.55805
H      2.64998   -1.25204    1.15561
H     -2.78592    0.98943    0.35276
H     -2.54347    0.74367   -1.23576
H     -1.32007   -0.07150    2.31196
Fe    -0.23043   -0.02177   -0.15505
H      2.72657    0.93128    1.40403
H     -2.93086   -0.51865   -0.27575
N      0.63723   -0.17022    2.58810
H      0.63611    0.57358    3.29585
H      0.55295   -1.05986    3.09300
N      1.30087    2.56617   -0.86762
H      1.15845    3.56836   -1.05404
H      1.24400    2.10899   -1.78554
