23

O      0.27592   -0.50182   -2.00416
O     -0.56535   -2.20785    0.03840
O      0.18933    2.08207   -0.28257
P      2.30972   -0.55754    0.05634
N     -2.25551    0.27593   -0.65587
O     -0.47882    0.27163    1.69224
H     -1.00854   -2.61774    0.79544
H     -0.44271   -2.89715   -0.63144
H      3.16724    0.33118   -0.64201
H      2.77127   -1.79303   -0.46383
H     -2.44030    1.01035   -1.34444
H     -2.76896   -0.54677   -0.98566
H     -0.05123   -0.17854    2.43422
H     -0.23636    1.24145    1.77340
Fe    -0.15715   -0.17078   -0.40780
H      2.94239   -0.56589    1.32942
H     -2.70619    0.56393    0.21744
N      0.24389    2.71179    0.98275
H      1.19077    3.09130    1.11489
H     -0.41483    3.50186    0.97497
N      0.49817    2.81617   -1.41346
H     -0.13512    3.62353   -1.46170
H      1.46051    3.16516   -1.32741
