54

O      7.40417   22.90048    6.82391
Fe     5.98108   22.11572    4.79957
P      5.79178   20.08701    5.87071
C      5.06102   18.79048    4.79721
C      4.04134   19.46652    3.90215
P      4.85949   20.95885    3.24994
C      3.60927   22.10774    2.61443
C      4.14799   23.50739    2.82574
N      4.80157   23.75709    4.13415
C      5.96500   20.42211    1.88284
C      7.39915   20.38502    2.38010
P      7.72839   21.95576    3.26557
C      9.33787   21.81801    4.06865
C      8.00080   23.15643    1.93400
H      3.67988   18.82156    3.08439
H      3.40760   21.92815    1.54596
H      2.67633   21.91745    3.15901
H      3.16402   19.80604    4.47696
H      5.84891   21.15357    1.06650
H      5.62601   19.44822    1.49356
H      8.11968   20.23532    1.55874
H      7.54903   19.56795    3.10341
H      8.80624   22.78163    1.28119
H      7.09406   23.30730    1.33271
H      8.31572   24.11841    2.36458
H     10.11668   21.57905    3.32691
H      9.56115   22.78303    4.54860
H      9.31135   21.04989    4.85108
H      4.91800   23.70034    2.06505
H      3.35393   24.25786    2.66707
C      3.84525   23.98483    5.23651
H      4.45523   24.28705    6.09597
H      3.20122   24.84580    4.98043
C      5.63404   24.97946    3.93267
H      6.34299   24.72451    3.13558
H      4.96433   25.75762    3.52072
H      4.62427   17.98502    5.41015
H      5.87766   18.34535    4.20621
C      4.78217   20.10413    7.36928
H      3.73010   20.30710    7.12787
H      4.86041   19.12051    7.85987
H      5.15713   20.88424    8.04485
C      7.40851   19.48513    6.39057
H      7.28691   18.55215    6.96434
H      8.03649   19.28823    5.51159
H      7.88289   20.25699    7.01362
C      6.37495   25.52699    5.12178
H      5.70627   25.92043    5.90018
H      7.04301   24.77776    5.56539
H      6.98403   26.37556    4.77365
C      3.02232   22.77748    5.61206
H      2.63475   22.89206    6.63471
H      2.16078   22.61208    4.95282
H      3.65696   21.87441    5.59370
