29

O     -2.54044    2.14287    2.23585
Fe    -2.34162    2.19813   -0.25055
N     -3.59512    3.86344   -0.56174
O     -1.93534    1.69862   -2.01175
N     -0.25218    2.49086   -0.17308
O     -3.60766    0.54962   -0.30278
C     -4.84334    3.64127    0.18619
H     -5.51225    4.51029    0.06464
H     -5.34842    2.74516   -0.19966
H     -4.61100    3.50270    1.24893
C     -2.84815    5.00618   -0.01482
H     -1.91841    5.15361   -0.58359
H     -3.45134    5.92766   -0.09159
H     -2.61417    4.81709    1.04125
C     -3.88139    4.05716   -1.98823
H     -4.42321    3.18370   -2.37976
H     -4.52238    4.94497   -2.12928
H     -2.94699    4.21750   -2.54408
H     -1.31125    1.00478   -2.27108
H     -2.51814    1.81556   -2.77573
H      0.15369    2.28367    0.74697
H     -3.84528    0.34439    0.61555
C      0.58064    2.98167   -1.00883
H      1.64081    3.15133   -0.75279
H      0.24087    3.24679   -2.02125
C     -3.78583   -0.61128   -1.12698
H     -3.04664   -1.38957   -0.87244
H     -4.80731   -1.00229   -0.99228
H     -3.65711   -0.29784   -2.16995
