23

O     11.91047    7.03301   13.10678
Fe    13.16932    7.40571   11.74873
N     14.71204    7.73245   10.05996
N     12.08987    8.38103   10.30926
O     14.60327    8.82064   12.52677
N     13.88702    5.54582   11.37638
C     14.19732    8.84572    9.25773
H     14.64508    9.79826    9.59918
H     14.50396    8.77195    8.19893
C     12.72268    8.98334    9.37289
C     15.95533    8.01266   10.74590
H     16.38132    7.05863   11.11399
C     15.70388    8.83022   11.99387
C     14.75876    6.46614    9.33174
H     13.97110    6.44972    8.55908
H     15.71814    6.32995    8.80180
C     14.47795    5.31585   10.25449
H     12.20857    9.63961    8.64915
H     16.54921    9.40170   12.43485
H     13.67209    4.73081   11.95952
H     11.07805    8.54315   10.35057
Br    17.32848    8.80769    9.65189
Br    14.95230    3.64882    9.66768
