53

O      5.93371   23.08230    7.11409
Fe     6.33990   22.50024    5.60611
P      6.00244   20.34806    6.13408
C      5.76694   19.06459    4.85897
C      4.69979   19.24045    3.78202
C      4.19282   21.71194    3.74077
C      4.42654   23.11316    3.17841
P      5.05860   24.05680    4.60079
C      5.88792   20.70586    2.03429
C      7.27110   20.78878    2.65141
P      7.64459   22.13822    3.81502
C      9.25153   21.65736    4.51372
C      8.07738   23.54384    2.75170
H      4.79560   18.37634    3.10499
H      4.95431   21.68084    4.64400
H      3.71834   19.10656    4.26282
H      5.72406   21.57191    1.37382
H      5.91323   19.84618    1.34422
H      8.02057   20.90040    1.84849
H      7.53777   19.86113    3.17178
H      8.90979   23.25268    2.09126
H      7.22628   23.84892    2.12846
H      8.39644   24.39290    3.37367
H      9.98230   21.48043    3.70769
H      9.62951   22.46168    5.16427
H      9.13447   20.74143    5.10965
H      5.21766   23.10189    2.41838
H      3.52654   23.54787    2.71352
C      3.65012   24.35921    5.68638
H      4.01390   24.91833    6.56112
H      2.87763   24.94307    5.16049
H      3.23793   23.40392    6.03684
C      5.59708   25.69414    4.07362
H      6.00135   26.22712    4.94883
H      6.36718   25.64053    3.29534
H      4.72554   26.25077    3.69140
H      5.50673   18.16590    5.44733
H      6.75884   18.84592    4.44002
C      4.33601   20.40723    7.03310
H      3.64273   20.87745    6.31416
H      4.05551   19.34216    7.12439
C      7.12127   19.59627    7.33750
H      6.73407   18.60810    7.63571
H      8.13152   19.47849    6.92033
H      7.17532   20.25346    8.21559
C      4.66251   20.50530    2.91796
H      3.83720   20.34141    2.20052
N      4.32091   21.05154    8.27338
H      4.56196   22.04284    8.23005
H      4.79781   20.57042    9.03003
N      2.89663   21.55535    4.25558
H      2.25951   22.33377    4.13767
H      2.44383   20.66274    4.09441
