23

O     11.93740    7.04098   13.07773
Fe    13.14239    7.39774   11.77778
N     14.68511    7.72448   10.08901
N     12.06294    8.37306   10.33831
O     14.57634    8.81267   12.55582
N     13.86009    5.53785   11.40543
C     14.17039    8.83775    9.28678
H     14.61815    9.79029    9.62823
H     14.47703    8.76398    8.22798
C     12.69575    8.97537    9.40194
C     15.92840    8.00469   10.77495
H     16.35439    7.05066   11.14304
C     15.67695    8.82225   12.02292
C     14.73183    6.45817    9.36079
H     13.94417    6.44175    8.58813
H     15.69121    6.32198    8.83085
C     14.45102    5.30788   10.28354
H     12.18164    9.63164    8.67820
H     16.52228    9.39373   12.46390
H     13.64516    4.72284   11.98857
H     11.05112    8.53518   10.37962
Br    17.30155    8.79972    9.68094
Br    14.92537    3.64085    9.69673
