54

O      7.10516   22.73559    6.39856
Fe     6.28009   22.28061    5.22492
P      6.09079   20.25190    6.29606
C      5.36003   18.95537    5.22256
C      4.34035   19.63141    4.32750
P      5.15850   21.12374    3.67529
C      3.90828   22.27263    3.03978
C      4.44700   23.67228    3.25109
N      5.10058   23.92198    4.55950
C      6.26401   20.58700    2.30819
C      7.69816   20.54991    2.80545
P      8.02740   22.12065    3.69092
C      9.63688   21.98290    4.49400
C      8.29981   23.32132    2.35935
H      3.97889   18.98645    3.50974
H      3.70661   22.09304    1.97131
H      2.97534   22.08234    3.58436
H      3.46303   19.97093    4.90231
H      6.14792   21.31846    1.49185
H      5.92502   19.61311    1.91891
H      8.41869   20.40021    1.98409
H      7.84804   19.73284    3.52876
H      9.10525   22.94652    1.70654
H      7.39307   23.47219    1.75806
H      8.61473   24.28330    2.78993
H     10.41569   21.74394    3.75226
H      9.86016   22.94792    4.97395
H      9.61036   21.21478    5.27643
H      5.21701   23.86523    2.49040
H      3.65294   24.42275    3.09242
C      4.14426   24.14972    5.66186
H      4.75424   24.45194    6.52132
H      3.50023   25.01069    5.40578
C      5.93305   25.14435    4.35802
H      6.64200   24.88940    3.56093
H      5.26334   25.92251    3.94607
H      4.92328   18.14991    5.83550
H      6.17667   18.51024    4.63156
C      5.08118   20.26902    7.79463
H      4.02911   20.47199    7.55322
H      5.15942   19.28540    8.28522
H      5.45614   21.04913    8.47020
C      7.70752   19.65002    6.81592
H      7.58592   18.71704    7.38969
H      8.33550   19.45312    5.93694
H      8.18190   20.42188    7.43897
C      6.67396   25.69188    5.54713
H      6.00528   26.08532    6.32553
H      7.34202   24.94265    5.99074
H      7.28304   26.54045    5.19900
C      3.32133   22.94237    6.03741
H      2.93376   23.05695    7.06006
H      2.45979   22.77697    5.37817
H      3.95597   22.03930    6.01905
