22

O      0.51639   -0.08013   -2.25280
O     -0.13176   -2.17943   -0.07121
O      0.10773    2.16127   -0.26153
P      2.30219   -0.29132    0.28390
O     -2.10960   -0.04871   -0.49896
O     -0.64106    0.01076    1.68341
H     -0.22828   -2.85443   -0.76923
H      0.53141    2.57598    0.50515
H      0.36283    2.70154   -1.02613
H      3.21230    0.75475   -0.01578
H      2.94457   -1.38584   -0.34595
H     -2.68541    0.33670   -1.17409
H     -2.39064    0.28196    0.45609
H     -0.79213   -1.01458    1.66698
Fe    -0.06937    0.04772   -0.46159
H      2.61064   -0.53448    1.64780
N     -0.93253   -2.47185    1.03290
H     -1.88513   -2.68965    0.71559
H     -0.54582   -3.29455    1.51254
N     -1.94509    0.54948    1.82075
H     -2.37163    0.13016    2.65796
H     -1.79979    1.53586    2.06131
