23

O      0.34243   -0.09955   -2.29738
O     -0.52170   -2.07818   -0.23040
O      0.08708    2.13902   -0.31843
P      2.13064   -0.29714    0.23434
N     -2.43898    0.35284   -0.55660
O     -0.64925    0.13074    1.73012
H     -0.44904   -2.37325    0.69366
H      0.25540    2.43204    0.59357
H      2.98676    0.65210   -0.37477
H      2.64495   -1.52644   -0.24618
H     -2.79170    1.24169   -0.18840
H     -2.67013    0.36781   -1.55504
H      0.00201    0.06919    2.44469
H     -1.49736    0.26955    2.17863
Fe    -0.30535    0.04037   -0.33558
H      2.64597   -0.29889    1.55886
H     -3.03190   -0.38132   -0.15715
N      1.16517    2.69351   -1.07327
H      0.81768    3.60816   -1.39149
H      1.18033    2.09519   -1.90674
N      0.34449   -2.95293   -0.95283
H      0.52376   -2.42326   -1.81327
H     -0.25295   -3.74360   -1.22961
