37

O      0.67031    0.29871    2.82271
N      0.41717   -1.90737    1.23237
C      1.32200   -1.85566    0.06909
H      0.76693   -1.41171   -0.77205
H      1.61556   -2.87614   -0.23562
C     -0.94367   -2.36529    0.89051
H     -1.41819   -2.63103    1.84653
H     -0.90989   -3.27228    0.26121
C      2.53227   -1.01387    0.39966
H      3.12542   -1.49243    1.19340
H      3.19337   -0.92413   -0.47831
C     -1.73516   -1.28152    0.20947
H     -2.78484   -1.60038    0.09444
H     -1.34189   -1.02244   -0.79000
C      1.96397    1.36014   -0.11843
H      2.94836    1.68063   -0.50264
H      1.40440    0.95732   -0.97640
C     -2.22720    1.08857    0.58707
H     -2.70941    1.56937    1.45016
H     -2.98464    0.88950   -0.18610
C     -1.09761    1.93369    0.05150
H     -0.64921    1.46624   -0.83712
H     -1.46323    2.93192   -0.25377
C      1.24224    2.53050    0.51086
H      1.83176    2.92669    1.35229
H      1.09231    3.35234   -0.21035
N     -0.04309    2.06800    1.07013
Fe     0.22338    0.12007    1.92318
N      2.10101    0.30282    0.88374
O     -1.66960   -0.14146    1.06921
H      2.72965    0.62217    1.62359
N      0.88305   -2.63962    2.33822
H      1.71261   -2.19098    2.72323
H      1.12742   -3.59619    2.05991
N     -0.54919    2.76660    2.17494
H     -0.76911    3.73821    1.92901
H      0.14767    2.75699    2.92041
