23

O      0.24999   -0.48200   -1.90857
O     -0.53942   -2.22767   -0.05719
O      0.18933    2.08207   -0.28257
P      2.30972   -0.55754    0.05634
N     -2.22958    0.25611   -0.75146
O     -0.47882    0.27163    1.69224
H     -0.98261   -2.63756    0.69985
H     -0.41678   -2.91697   -0.72703
H      3.16724    0.33118   -0.64201
H      2.77127   -1.79303   -0.46383
H     -2.41437    0.99053   -1.44003
H     -2.74303   -0.56659   -1.08125
H     -0.05123   -0.17854    2.43422
H     -0.23636    1.24145    1.77340
Fe    -0.13122   -0.19060   -0.50339
H      2.94239   -0.56589    1.32942
H     -2.68026    0.54411    0.12185
N      0.24389    2.71179    0.98275
H      1.19077    3.09130    1.11489
H     -0.41483    3.50186    0.97497
N      0.49817    2.81617   -1.41346
H     -0.13512    3.62353   -1.46170
H      1.46051    3.16516   -1.32741
