37

O      0.93581    0.40483    3.35708
N      0.15167   -2.01349    0.69800
C      1.05650   -1.96178   -0.46528
H      0.50143   -1.51783   -1.30642
H      1.35006   -2.98226   -0.76999
C     -1.20917   -2.47141    0.35614
H     -1.68369   -2.73715    1.31216
H     -1.17539   -3.37840   -0.27316
C      2.26677   -1.11999   -0.13471
H      2.85992   -1.59855    0.65903
H      2.92787   -1.03025   -1.01268
C     -2.00066   -1.38764   -0.32490
H     -3.05034   -1.70650   -0.43993
H     -1.60739   -1.12856   -1.32437
C      1.69847    1.25402   -0.65280
H      2.68286    1.57451   -1.03701
H      1.13890    0.85120   -1.51077
C     -2.49270    0.98245    0.05270
H     -2.97491    1.46325    0.91579
H     -3.25014    0.78338   -0.72047
C     -1.36311    1.82757   -0.48287
H     -0.91471    1.36012   -1.37149
H     -1.72873    2.82580   -0.78814
C      0.97674    2.42438   -0.02351
H      1.56626    2.82057    0.81792
H      0.82681    3.24622   -0.74472
N     -0.30859    1.96188    0.53576
Fe    -0.04212    0.01395    1.38881
N      1.83551    0.19670    0.34937
O     -1.93510   -0.24758    0.53484
H      2.46415    0.51605    1.08922
N      0.61755   -2.74574    1.80385
H      1.44711   -2.29710    2.18886
H      0.86192   -3.70231    1.52554
N     -0.81469    2.66048    1.64057
H     -1.03461    3.63209    1.39464
H     -0.11783    2.65087    2.38604
