36

O      7.73986   22.62034    6.81965
Fe     6.06905   21.75297    5.03217
N      5.29572   20.04952    5.80724
C      5.50862   19.04936    4.73128
C      4.52367   19.25008    3.58460
C      3.65308   21.76744    2.99043
C      4.38179   23.09374    3.20681
N      4.85430   23.31764    4.58574
C      5.64812   20.67769    1.70785
C      7.04679   20.67662    2.26295
O      7.20499   21.61144    3.36595
H      4.70181   18.38403    2.92762
H      3.12822   21.98587    2.04494
H      3.51821   19.06902    3.99774
H      5.48669   21.59095    1.11347
H      5.66847   19.86267    0.96395
H      7.75798   20.98337    1.47876
H      7.34919   19.67748    2.61892
H      5.25042   23.19385    2.54029
H      3.68415   23.90786    2.94409
H      6.55015   19.19573    4.39132
C      4.43314   20.45465    2.62122
H      3.69928   20.02621    1.91961
H      5.81369   19.78495    6.65201
H      4.30680   20.06705    6.07773
H      8.14272   21.83547    3.48072
H      5.35278   24.21009    4.66602
H      4.06001   23.38789    5.23090
C      2.56261   21.55307    4.02475
H      1.90976   22.43753    4.09941
H      1.91789   20.70340    3.75653
H      2.95949   21.35021    5.03337
C      5.40452   17.64287    5.29672
H      5.64266   16.90138    4.51983
H      6.10932   17.49317    6.12985
H      4.38185   17.44438    5.65614
