23

O      0.39002   -0.58905   -2.42476
O     -0.67945   -2.12062    0.45900
O      0.18933    2.08207   -0.28257
P      2.30972   -0.55754    0.05634
N     -2.36961    0.36316   -0.23527
O     -0.47882    0.27163    1.69224
H     -1.12264   -2.53051    1.21604
H     -0.55681   -2.80992   -0.21084
H      3.16724    0.33118   -0.64201
H      2.77127   -1.79303   -0.46383
H     -2.55440    1.09758   -0.92384
H     -2.88306   -0.45954   -0.56506
H     -0.05123   -0.17854    2.43422
H     -0.23636    1.24145    1.77340
Fe    -0.27125   -0.08355    0.01280
H      2.94239   -0.56589    1.32942
H     -2.82029    0.65116    0.63804
N      0.24389    2.71179    0.98275
H      1.19077    3.09130    1.11489
H     -0.41483    3.50186    0.97497
N      0.49817    2.81617   -1.41346
H     -0.13512    3.62353   -1.46170
H      1.46051    3.16516   -1.32741
