19

O      0.84758   -0.22906   -2.55264
O     -0.21484   -2.10960    0.51097
O      0.34807    2.07835    0.41360
P      2.55548   -0.35681    0.69114
P     -2.22553    0.28254   -0.92454
O     -0.19929    0.04417    1.85116
H     -0.78922   -2.52077    1.17434
H     -0.31755   -2.63244   -0.29967
H      0.49390    2.52757    1.26013
H      0.98611    2.46613   -0.20780
H      3.10595   -1.42385   -0.06829
H     -2.38730    1.24743   -1.95659
H      0.37968   -0.22737    2.57891
H     -1.02912    0.31306    2.27257
Fe     0.07964   -0.02289    0.25617
H      3.15297   -0.62700    1.95646
H     -3.31886    0.66526   -0.09332
Br    -2.95938   -1.53617   -1.85346
Br     3.66679    1.37053    0.00700
