19

O      0.68815   -0.18626   -1.96950
O     -0.05541   -2.15240   -0.07217
O      0.50750    2.03555   -0.16954
P      2.71491   -0.39961    0.10800
P     -2.22553    0.28254   -0.92454
O     -0.19929    0.04417    1.85116
H     -0.62979   -2.56357    0.59120
H     -0.15812   -2.67524   -0.88281
H      0.65333    2.48477    0.67699
H      1.14554    2.42333   -0.79094
H      3.26538   -1.46665   -0.65143
H     -2.38730    1.24743   -1.95659
H      0.37968   -0.22737    2.57891
H     -1.02912    0.31306    2.27257
Fe     0.23907   -0.06569   -0.32697
H      3.31240   -0.66980    1.37332
H     -3.31886    0.66526   -0.09332
Br    -2.95938   -1.53617   -1.85346
Br     3.82622    1.32773   -0.57614
