19

O      0.61906   -0.16771   -1.71680
O      0.01368   -2.17095   -0.32487
O      0.57659    2.01700   -0.42224
P      2.78400   -0.41816   -0.14470
P     -2.22553    0.28254   -0.92454
O     -0.19929    0.04417    1.85116
H     -0.56070   -2.58212    0.33850
H     -0.08903   -2.69379   -1.13551
H      0.72242    2.46622    0.42429
H      1.21463    2.40478   -1.04364
H      3.33447   -1.48520   -0.90413
H     -2.38730    1.24743   -1.95659
H      0.37968   -0.22737    2.57891
H     -1.02912    0.31306    2.27257
Fe     0.30816   -0.08424   -0.57967
H      3.38149   -0.68835    1.12062
H     -3.31886    0.66526   -0.09332
Br    -2.95938   -1.53617   -1.85346
Br     3.89531    1.30918   -0.82884
