22

O      0.40362   -0.05552   -1.90797
O     -0.13176   -2.17943   -0.07121
O      0.10773    2.16127   -0.26153
P      2.41496   -0.31593   -0.06093
O     -1.99683   -0.07332   -0.84379
O     -0.64106    0.01076    1.68341
H     -0.22828   -2.85443   -0.76923
H      0.53141    2.57598    0.50515
H      0.36283    2.70154   -1.02613
H      3.32507    0.73014   -0.36061
H      3.05734   -1.41045   -0.69078
H     -2.57264    0.31209   -1.51892
H     -2.27787    0.25735    0.11126
H     -0.79213   -1.01458    1.66698
Fe     0.04340    0.02311   -0.80642
H      2.72341   -0.55909    1.30297
N     -0.93253   -2.47185    1.03290
H     -1.88513   -2.68965    0.71559
H     -0.54582   -3.29455    1.51254
N     -1.94509    0.54948    1.82075
H     -2.37163    0.13016    2.65796
H     -1.79979    1.53586    2.06131
