36

O      7.79187   22.64734    6.87529
Fe     6.01704   21.72597    4.97653
N      5.24371   20.02252    5.75160
C      5.45661   19.02236    4.67564
C      4.47166   19.22308    3.52896
C      3.60107   21.74044    2.93479
C      4.32978   23.06674    3.15117
N      4.80229   23.29064    4.53010
C      5.59611   20.65069    1.65221
C      6.99478   20.64962    2.20731
O      7.15298   21.58444    3.31031
H      4.64980   18.35703    2.87198
H      3.07621   21.95887    1.98930
H      3.46620   19.04202    3.94210
H      5.43468   21.56395    1.05783
H      5.61646   19.83567    0.90831
H      7.70597   20.95637    1.42312
H      7.29718   19.65048    2.56328
H      5.19841   23.16685    2.48465
H      3.63214   23.88086    2.88845
H      6.49814   19.16873    4.33568
C      4.38113   20.42765    2.56558
H      3.64727   19.99921    1.86397
H      5.76168   19.75795    6.59637
H      4.25479   20.04005    6.02209
H      8.09071   21.80847    3.42508
H      5.30077   24.18309    4.61038
H      4.00800   23.36089    5.17526
C      2.51060   21.52607    3.96911
H      1.85775   22.41053    4.04377
H      1.86588   20.67640    3.70089
H      2.90748   21.32321    4.97773
C      5.35251   17.61587    5.24108
H      5.59065   16.87438    4.46419
H      6.05731   17.46617    6.07421
H      4.32984   17.41738    5.60050
