17

O      0.00000    0.00000    2.00707
Fe     0.00000    0.00000   -0.40707
O     -0.02532   -2.04942   -0.44884
O      0.01885    2.04941   -0.45255
O     -2.09136   -0.00340   -0.59737
O      2.09172    0.00000   -0.59331
O      0.00000    0.00000   -2.45707
H      0.26040   -2.63210   -1.17446
H      0.04961   -2.57039    0.37131
H     -0.25655    2.63228   -1.18193
H     -0.05040    2.57471    0.36525
H     -2.58023    0.46315    0.10690
H     -2.52460   -0.87680   -0.63514
H      2.52747    0.87055   -0.65787
H      2.57839   -0.44571    0.12585
H     -0.77522    0.08407   -3.03769
H      0.77001   -0.10212   -3.04165
