54

O      7.31004   22.84857    6.69000
Fe     6.07521   22.16763    4.93348
P      5.88591   20.13892    6.00462
C      5.15515   18.84239    4.93112
C      4.13547   19.51843    4.03606
P      4.95362   21.01076    3.38385
C      3.70340   22.15965    2.74834
C      4.24212   23.55930    2.95965
N      4.89570   23.80900    4.26806
C      6.05913   20.47402    2.01675
C      7.49328   20.43693    2.51401
P      7.82252   22.00767    3.39948
C      9.43200   21.86992    4.20256
C      8.09493   23.20834    2.06791
H      3.77401   18.87347    3.21830
H      3.50173   21.98006    1.67987
H      2.77046   21.96936    3.29292
H      3.25815   19.85795    4.61087
H      5.94304   21.20548    1.20041
H      5.72014   19.50013    1.62747
H      8.21381   20.28723    1.69265
H      7.64316   19.61986    3.23732
H      8.90037   22.83354    1.41510
H      7.18819   23.35921    1.46662
H      8.40985   24.17032    2.49849
H     10.21081   21.63096    3.46082
H      9.65528   22.83494    4.68251
H      9.40548   21.10180    4.98499
H      5.01213   23.75225    2.19896
H      3.44806   24.30977    2.80098
C      3.93938   24.03674    5.37042
H      4.54936   24.33896    6.22988
H      3.29535   24.89771    5.11434
C      5.72817   25.03137    4.06658
H      6.43712   24.77642    3.26949
H      5.05846   25.80953    3.65463
H      4.71840   18.03693    5.54406
H      5.97179   18.39726    4.34012
C      4.87630   20.15604    7.50319
H      3.82423   20.35901    7.26178
H      4.95454   19.17242    7.99378
H      5.25126   20.93615    8.17876
C      7.50264   19.53704    6.52448
H      7.38104   18.60406    7.09825
H      8.13062   19.34014    5.64550
H      7.97702   20.30890    7.14753
C      6.46908   25.57890    5.25569
H      5.80040   25.97234    6.03409
H      7.13714   24.82967    5.69930
H      7.07816   26.42747    4.90756
C      3.11645   22.82939    5.74597
H      2.72888   22.94397    6.76862
H      2.25491   22.66399    5.08673
H      3.75109   21.92632    5.72761
