37

O      0.68801    0.30578    2.85833
N      0.39947   -1.91444    1.19675
C      1.30430   -1.86273    0.03347
H      0.74923   -1.41878   -0.80767
H      1.59786   -2.88321   -0.27124
C     -0.96137   -2.37236    0.85489
H     -1.43589   -2.63810    1.81091
H     -0.92759   -3.27935    0.22559
C      2.51457   -1.02094    0.36404
H      3.10772   -1.49950    1.15778
H      3.17567   -0.93120   -0.51393
C     -1.75286   -1.28859    0.17385
H     -2.80254   -1.60745    0.05882
H     -1.35959   -1.02951   -0.82562
C      1.94627    1.35307   -0.15405
H      2.93066    1.67356   -0.53826
H      1.38670    0.95025   -1.01202
C     -2.24490    1.08150    0.55145
H     -2.72711    1.56230    1.41454
H     -3.00234    0.88243   -0.22172
C     -1.11531    1.92662    0.01588
H     -0.66691    1.45917   -0.87274
H     -1.48093    2.92485   -0.28939
C      1.22454    2.52343    0.47524
H      1.81406    2.91962    1.31667
H      1.07461    3.34527   -0.24597
N     -0.06079    2.06093    1.03451
Fe     0.20568    0.11300    1.88756
N      2.08331    0.29575    0.84812
O     -1.68730   -0.14853    1.03359
H      2.71195    0.61510    1.58797
N      0.86535   -2.64669    2.30260
H      1.69491   -2.19805    2.68761
H      1.10972   -3.60326    2.02429
N     -0.56689    2.75953    2.13932
H     -0.78681    3.73114    1.89339
H      0.12997    2.74992    2.88479
